/*---------------------------------------------------------------------------*\
| =========                 |                                                 |
| \\      /  F ield         | OpenFOAM: The Open Source CFD Toolbox           |
|  \\    /   O peration     | Version:  2506                                  |
|   \\  /    A nd           | Website:  www.openfoam.com                      |
|    \\/     M anipulation  |                                                 |
\*---------------------------------------------------------------------------*/
Build  : _615aae61-20250627 OPENFOAM=2506 version=2506
Arch   : "LSB;label=32;scalar=64"
Exec   : snappyHexMesh -overwrite
Date   : Jan 10 2026
Time   : 21:27:01
Host   : tanguy-VMware-Virtual-Platform
PID    : 19450
I/O    : uncollated
Case   : /home/tanguy/OpenFOAM/tanguy-v2506/run/simpleBoule
nProcs : 1
trapFpe: Floating point exception trapping enabled (FOAM_SIGFPE).
fileModificationChecking : Monitoring run-time modified files using timeStampMaster (fileModificationSkew 5, maxFileModificationPolls 20)
allowSystemOperations : Allowing user-supplied system call operations

// * * * * * * * * * * * * * * * * * * * * * * * * * * * * * * * * * * * * * //
Create time

Create mesh for time = 0

Read mesh in = 0.02 s

Overall mesh bounding box  : (-0.001 -0.001 -0.001) (0.011 0.011 0.011)
Relative tolerance         : 1e-06
Absolute matching distance : 2.07846e-08

Reading refinement surfaces.
Read refinement surfaces in = 0 s

Reading refinement shells.
Read refinement shells in = 0 s

Setting refinement level of surface to be consistent with shells.
For geometry box_walls.stl detected 0 uncached triangles out of 12
Checked shell refinement in = 0 s

Reading features.
Read edgeMesh box_walls.eMesh
    points      : 8
    edges       : 12
    boundingBox : (0 0 0) (0.01 0.01 0.01)

Refinement level according to distance to "box_walls.eMesh" (8 points, 12 edges).
    level 0 for all cells within 0 metre.
Read features in = 0 s


Determining initial surface intersections
-----------------------------------------

Edge intersection testing:
    Number of edges             : 43200
    Number of edges to retest   : 0
    Number of intersected edges : 0
Edge intersection testing:
    Number of edges             : 43200
    Number of edges to retest   : 43200
    Number of intersected edges : 3648
Calculated surface intersections in = 0.06 s

Initial mesh : cells:13824  faces:43200  points:15625
Cells per refinement level:
    0	13824
Setting refinement level of surface to be consistent with curvature.
Checked curvature refinement in = 0 s


Adding patches for surface regions
----------------------------------

Patch Type                Region                        
----- ----                ------                        
sphere:

1     wall                sphere                        
2     wall                sphere_slave                  

box_walls:

3     patch               inlet                         
4     patch               outlet                        
5     wall                walls                         

Added patches in = 0.01 s

Edge intersection testing:
    Number of edges             : 43200
    Number of edges to retest   : 0
    Number of intersected edges : 3648
Decomposition method none [1]

Refinement phase
----------------

Found point (0.005 0.005 0.005) in cell 7212 on processor 0
Found point (0.001 0.001 0.001) in cell 2404 on processor 0

Feature refinement iteration 0
------------------------------

Marked for refinement due to explicit features             : 0 cells.
Determined cells to refine in = 0.12 s
Selected for feature refinement : 0 cells (out of 13824)
Stopping refining since too few cells selected.


Surface refinement iteration 0
------------------------------

Marked for refinement due to surface intersection          : 1376 cells.
Determined cells to refine in = 0 s
Selected for refinement : 1376 cells (out of 13824)
Edge intersection testing:
    Number of edges             : 75876
    Number of edges to retest   : 42204
    Number of intersected edges : 7272
Refined mesh in = 0.09 s
After refinement surface refinement iteration 0 : cells:23456  faces:75876  points:29049
Cells per refinement level:
    0	12448
    1	11008

Surface refinement iteration 1
------------------------------

Marked for refinement due to surface intersection          : 5360 cells.
Determined cells to refine in = 0.01 s
Selected for refinement : 5864 cells (out of 23456)
Edge intersection testing:
    Number of edges             : 213600
    Number of edges to retest   : 180168
    Number of intersected edges : 21768
Refined mesh in = 0.38 s
After refinement surface refinement iteration 1 : cells:64504  faces:213600  points:84689
Cells per refinement level:
    0	11920
    1	9896
    2	42688

Surface refinement iteration 2
------------------------------

Marked for refinement due to surface intersection          : 144 cells.
Determined cells to refine in = 0.01 s
Selected for refinement : 144 cells (out of 64504)
Edge intersection testing:
    Number of edges             : 216624
    Number of edges to retest   : 12792
    Number of intersected edges : 21768
Refined mesh in = 0.28 s
After refinement surface refinement iteration 2 : cells:65512  faces:216624  points:85697
Cells per refinement level:
    0	11920
    1	9752
    2	43840

Surface refinement iteration 3
------------------------------

Marked for refinement due to surface intersection          : 0 cells.
Determined cells to refine in = 0.01 s
Selected for refinement : 0 cells (out of 65512)
Stopping refining since too few cells selected.


Removing mesh beyond surface intersections
------------------------------------------

Setting cellZones according to locationsInMesh:
Location : (0.005 0.005 0.005)
    cellZone : solid
Location : (0.001 0.001 0.001)
    cellZone : air

For cellZone solid found point (0.005 0.005 0.005) in global region 1 out of 2 regions.
For cellZone air found point (0.001 0.001 0.001) in global region 1 out of 2 regions.
--> FOAM Warning : 
    From void Foam::meshRefinement::findCellZoneInsideWalk(const Foam::pointField&, const Foam::labelList&, const Foam::labelList&, Foam::labelList&) const
    in file meshRefinement/meshRefinementBaffles.C at line 1788
    Cell 1202 at (0.00025 0.00025 0.00025) is inside cellZone air from locationInMesh (0.001 0.001 0.001) but already marked as being in zone solid
This can happen if your surfaces are not (sufficiently) closed.
--> FOAM Warning : 
    From void Foam::meshRefinement::findCellZoneInsideWalk(const Foam::pointField&, const Foam::labelList&, const Foam::labelList&, Foam::labelList&) const
    in file meshRefinement/meshRefinementBaffles.C at line 1788
    Cell 1203 at (0.00075 0.00025 0.00025) is inside cellZone air from locationInMesh (0.001 0.001 0.001) but already marked as being in zone solid
This can happen if your surfaces are not (sufficiently) closed.
--> FOAM Warning : 
    From void Foam::meshRefinement::findCellZoneInsideWalk(const Foam::pointField&, const Foam::labelList&, const Foam::labelList&, Foam::labelList&) const
    in file meshRefinement/meshRefinementBaffles.C at line 1788
    Cell 1204 at (0.00125 0.00025 0.00025) is inside cellZone air from locationInMesh (0.001 0.001 0.001) but already marked as being in zone solid
This can happen if your surfaces are not (sufficiently) closed.
--> FOAM Warning : 
    From void Foam::meshRefinement::findCellZoneInsideWalk(const Foam::pointField&, const Foam::labelList&, const Foam::labelList&, Foam::labelList&) const
    in file meshRefinement/meshRefinementBaffles.C at line 1788
    Cell 1205 at (0.00175 0.00025 0.00025) is inside cellZone air from locationInMesh (0.001 0.001 0.001) but already marked as being in zone solid
This can happen if your surfaces are not (sufficiently) closed.
--> FOAM Warning : 
    From void Foam::meshRefinement::findCellZoneInsideWalk(const Foam::pointField&, const Foam::labelList&, const Foam::labelList&, Foam::labelList&) const
    in file meshRefinement/meshRefinementBaffles.C at line 1788
    Cell 1206 at (0.00225 0.00025 0.00025) is inside cellZone air from locationInMesh (0.001 0.001 0.001) but already marked as being in zone solid
This can happen if your surfaces are not (sufficiently) closed.
--> FOAM Warning : 
    From void Foam::meshRefinement::findCellZoneInsideWalk(const Foam::pointField&, const Foam::labelList&, const Foam::labelList&, Foam::labelList&) const
    in file meshRefinement/meshRefinementBaffles.C at line 1788
    Cell 1207 at (0.00275 0.00025 0.00025) is inside cellZone air from locationInMesh (0.001 0.001 0.001) but already marked as being in zone solid
This can happen if your surfaces are not (sufficiently) closed.
--> FOAM Warning : 
    From void Foam::meshRefinement::findCellZoneInsideWalk(const Foam::pointField&, const Foam::labelList&, const Foam::labelList&, Foam::labelList&) const
    in file meshRefinement/meshRefinementBaffles.C at line 1788
    Cell 1208 at (0.00325 0.00025 0.00025) is inside cellZone air from locationInMesh (0.001 0.001 0.001) but already marked as being in zone solid
This can happen if your surfaces are not (sufficiently) closed.
--> FOAM Warning : 
    From void Foam::meshRefinement::findCellZoneInsideWalk(const Foam::pointField&, const Foam::labelList&, const Foam::labelList&, Foam::labelList&) const
    in file meshRefinement/meshRefinementBaffles.C at line 1788
    Cell 1209 at (0.00375 0.00025 0.00025) is inside cellZone air from locationInMesh (0.001 0.001 0.001) but already marked as being in zone solid
This can happen if your surfaces are not (sufficiently) closed.
--> FOAM Warning : 
    From void Foam::meshRefinement::findCellZoneInsideWalk(const Foam::pointField&, const Foam::labelList&, const Foam::labelList&, Foam::labelList&) const
    in file meshRefinement/meshRefinementBaffles.C at line 1788
    Cell 1210 at (0.00425 0.00025 0.00025) is inside cellZone air from locationInMesh (0.001 0.001 0.001) but already marked as being in zone solid
This can happen if your surfaces are not (sufficiently) closed.
--> FOAM Warning : 
    From void Foam::meshRefinement::findCellZoneInsideWalk(const Foam::pointField&, const Foam::labelList&, const Foam::labelList&, Foam::labelList&) const
    in file meshRefinement/meshRefinementBaffles.C at line 1788
    Cell 1211 at (0.00475 0.00025 0.00025) is inside cellZone air from locationInMesh (0.001 0.001 0.001) but already marked as being in zone solid
This can happen if your surfaces are not (sufficiently) closed.
Found 1 named surfaces with a provided inside point. Assigning cells inside these surfaces to the corresponding cellZone.

For cellZone solid found point (0.005 0.005 0.005) in global region 2 out of 3 regions.
--> FOAM Warning : 
    From void Foam::meshRefinement::findCellZoneInsideWalk(const Foam::pointField&, const Foam::labelList&, const Foam::labelList&, Foam::labelList&) const
    in file meshRefinement/meshRefinementBaffles.C at line 1788
    Cell 2579 at (0.0045625 0.0045625 0.0010625) is inside cellZone solid from locationInMesh (0.005 0.005 0.005) but already marked as being in zone air
This can happen if your surfaces are not (sufficiently) closed.
--> FOAM Warning : 
    From void Foam::meshRefinement::findCellZoneInsideWalk(const Foam::pointField&, const Foam::labelList&, const Foam::labelList&, Foam::labelList&) const
    in file meshRefinement/meshRefinementBaffles.C at line 1788
    Cell 2580 at (0.0050625 0.0045625 0.0010625) is inside cellZone solid from locationInMesh (0.005 0.005 0.005) but already marked as being in zone air
This can happen if your surfaces are not (sufficiently) closed.
--> FOAM Warning : 
    From void Foam::meshRefinement::findCellZoneInsideWalk(const Foam::pointField&, const Foam::labelList&, const Foam::labelList&, Foam::labelList&) const
    in file meshRefinement/meshRefinementBaffles.C at line 1788
    Cell 2603 at (0.0045625 0.0050625 0.0010625) is inside cellZone solid from locationInMesh (0.005 0.005 0.005) but already marked as being in zone air
This can happen if your surfaces are not (sufficiently) closed.
--> FOAM Warning : 
    From void Foam::meshRefinement::findCellZoneInsideWalk(const Foam::pointField&, const Foam::labelList&, const Foam::labelList&, Foam::labelList&) const
    in file meshRefinement/meshRefinementBaffles.C at line 1788
    Cell 2604 at (0.0050625 0.0050625 0.0010625) is inside cellZone solid from locationInMesh (0.005 0.005 0.005) but already marked as being in zone air
This can happen if your surfaces are not (sufficiently) closed.
--> FOAM Warning : 
    From void Foam::meshRefinement::findCellZoneInsideWalk(const Foam::pointField&, const Foam::labelList&, const Foam::labelList&, Foam::labelList&) const
    in file meshRefinement/meshRefinementBaffles.C at line 1788
    Cell 2605 at (0.0055625 0.0050625 0.0010625) is inside cellZone solid from locationInMesh (0.005 0.005 0.005) but already marked as being in zone air
This can happen if your surfaces are not (sufficiently) closed.
--> FOAM Warning : 
    From void Foam::meshRefinement::findCellZoneInsideWalk(const Foam::pointField&, const Foam::labelList&, const Foam::labelList&, Foam::labelList&) const
    in file meshRefinement/meshRefinementBaffles.C at line 1788
    Cell 2628 at (0.0050625 0.0055625 0.0010625) is inside cellZone solid from locationInMesh (0.005 0.005 0.005) but already marked as being in zone air
This can happen if your surfaces are not (sufficiently) closed.
--> FOAM Warning : 
    From void Foam::meshRefinement::findCellZoneInsideWalk(const Foam::pointField&, const Foam::labelList&, const Foam::labelList&, Foam::labelList&) const
    in file meshRefinement/meshRefinementBaffles.C at line 1788
    Cell 3083 at (0.0045625 0.0030625 0.0015625) is inside cellZone solid from locationInMesh (0.005 0.005 0.005) but already marked as being in zone air
This can happen if your surfaces are not (sufficiently) closed.
--> FOAM Warning : 
    From void Foam::meshRefinement::findCellZoneInsideWalk(const Foam::pointField&, const Foam::labelList&, const Foam::labelList&, Foam::labelList&) const
    in file meshRefinement/meshRefinementBaffles.C at line 1788
    Cell 3084 at (0.0050625 0.0030625 0.0015625) is inside cellZone solid from locationInMesh (0.005 0.005 0.005) but already marked as being in zone air
This can happen if your surfaces are not (sufficiently) closed.
--> FOAM Warning : 
    From void Foam::meshRefinement::findCellZoneInsideWalk(const Foam::pointField&, const Foam::labelList&, const Foam::labelList&, Foam::labelList&) const
    in file meshRefinement/meshRefinementBaffles.C at line 1788
    Cell 3085 at (0.0055625 0.0030625 0.0015625) is inside cellZone solid from locationInMesh (0.005 0.005 0.005) but already marked as being in zone air
This can happen if your surfaces are not (sufficiently) closed.
--> FOAM Warning : 
    From void Foam::meshRefinement::findCellZoneInsideWalk(const Foam::pointField&, const Foam::labelList&, const Foam::labelList&, Foam::labelList&) const
    in file meshRefinement/meshRefinementBaffles.C at line 1788
    Cell 3105 at (0.0035625 0.0035625 0.0015625) is inside cellZone solid from locationInMesh (0.005 0.005 0.005) but already marked as being in zone air
This can happen if your surfaces are not (sufficiently) closed.
Walking from known cellZones; crossing a faceZone face changes cellZone

--> FOAM Warning : 
    From void Foam::meshRefinement::nearestFace(const Foam::labelUList&, const Foam::bitSet&, Foam::autoPtr<Foam::mapDistribute>&, Foam::labelList&, Foam::label) const
    in file meshRefinement/meshRefinement.C at line 526
    Did not visit some faces, e.g. face 10190 at (0.004125 0.0030625 0.0015625)
Keeping all cells containing inside points
Selected for keeping : 62336 cells.
Edge intersection testing:
    Number of edges             : 206820
    Number of edges to retest   : 2904
    Number of intersected edges : 21768

Shell refinement iteration 0
----------------------------

Marked for refinement due to distance to explicit features : 0 cells.
Marked for refinement due to refinement shells             : 0 cells.
Determined cells to refine in = 0.31 s
Selected for internal refinement : 6651 cells (out of 62336)
Edge intersection testing:
    Number of edges             : 347022
    Number of edges to retest   : 300675
    Number of intersected edges : 22182
Refined mesh in = 0.55 s
After refinement shell refinement iteration 0 : cells:108893  faces:347022  points:129330
Cells per refinement level:
    0	7638
    1	13055
    2	88200

Shell refinement iteration 1
----------------------------

Marked for refinement due to distance to explicit features : 0 cells.
Marked for refinement due to refinement shells             : 0 cells.
Determined cells to refine in = 0.11 s
Selected for internal refinement : 1206 cells (out of 108893)
Edge intersection testing:
    Number of edges             : 372339
    Number of edges to retest   : 88783
    Number of intersected edges : 22704
Refined mesh in = 0.42 s
After refinement shell refinement iteration 1 : cells:117335  faces:372339  points:137763
Cells per refinement level:
    0	6832
    1	19103
    2	91400

Shell refinement iteration 2
----------------------------

Marked for refinement due to distance to explicit features : 0 cells.
Marked for refinement due to refinement shells             : 0 cells.
Determined cells to refine in = 0.12 s
Selected for internal refinement : 12 cells (out of 117335)
Edge intersection testing:
    Number of edges             : 372591
    Number of edges to retest   : 1332
    Number of intersected edges : 22704
Refined mesh in = 0.5 s
After refinement shell refinement iteration 2 : cells:117419  faces:372591  points:137847
Cells per refinement level:
    0	6820
    1	19199
    2	91400

Shell refinement iteration 3
----------------------------

Marked for refinement due to distance to explicit features : 0 cells.
Marked for refinement due to refinement shells             : 0 cells.
Determined cells to refine in = 0.14 s
Selected for internal refinement : 0 cells (out of 117419)
Stopping refining since too few cells selected.


Dangling coarse cells refinement iteration 0
--------------------------------------------

Determined cells to refine in = 0.01 s
Selected for refinement : 21 cells (out of 117419)
Edge intersection testing:
    Number of edges             : 372906
    Number of edges to retest   : 2469
    Number of intersected edges : 22704
Refined mesh in = 0.33 s
After refinement coarse cell refinement iteration 0 : cells:117566  faces:372906  points:137889
Cells per refinement level:
    0	6820
    1	19178
    2	91568

Dangling coarse cells refinement iteration 1
--------------------------------------------

Determined cells to refine in = 0 s
Selected for refinement : 0 cells (out of 117566)
Stopping refining since too few cells selected.


Dangling coarse cells refinement iteration 0
--------------------------------------------

Determined cells to refine in = 0.01 s
Selected for refinement : 0 cells (out of 117566)
Stopping refining since too few cells selected.


Refinement transition refinement iteration 0
--------------------------------------------

Determined cells to refine in = 0 s
Selected for refinement : 0 cells (out of 117566)
Stopping refining since too few cells selected.


Splitting mesh at surface intersections
---------------------------------------

Introducing baffles for 22704 faces that are intersected by the surface.

Setting cellZones according to locationsInMesh:
Location : (0.005 0.005 0.005)
    cellZone : solid
Location : (0.001 0.001 0.001)
    cellZone : air

For cellZone solid found point (0.005 0.005 0.005) in global region 1 out of 2 regions.
For cellZone air found point (0.001 0.001 0.001) in global region 1 out of 2 regions.
--> FOAM Warning : 
    From void Foam::meshRefinement::findCellZoneInsideWalk(const Foam::pointField&, const Foam::labelList&, const Foam::labelList&, Foam::labelList&) const
    in file meshRefinement/meshRefinementBaffles.C at line 1788
    Cell 507 at (0.00025 0.00025 0.00025) is inside cellZone air from locationInMesh (0.001 0.001 0.001) but already marked as being in zone solid
This can happen if your surfaces are not (sufficiently) closed.
--> FOAM Warning : 
    From void Foam::meshRefinement::findCellZoneInsideWalk(const Foam::pointField&, const Foam::labelList&, const Foam::labelList&, Foam::labelList&) const
    in file meshRefinement/meshRefinementBaffles.C at line 1788
    Cell 508 at (0.00075 0.00025 0.00025) is inside cellZone air from locationInMesh (0.001 0.001 0.001) but already marked as being in zone solid
This can happen if your surfaces are not (sufficiently) closed.
--> FOAM Warning : 
    From void Foam::meshRefinement::findCellZoneInsideWalk(const Foam::pointField&, const Foam::labelList&, const Foam::labelList&, Foam::labelList&) const
    in file meshRefinement/meshRefinementBaffles.C at line 1788
    Cell 509 at (0.00125 0.00025 0.00025) is inside cellZone air from locationInMesh (0.001 0.001 0.001) but already marked as being in zone solid
This can happen if your surfaces are not (sufficiently) closed.
--> FOAM Warning : 
    From void Foam::meshRefinement::findCellZoneInsideWalk(const Foam::pointField&, const Foam::labelList&, const Foam::labelList&, Foam::labelList&) const
    in file meshRefinement/meshRefinementBaffles.C at line 1788
    Cell 510 at (0.00175 0.00025 0.00025) is inside cellZone air from locationInMesh (0.001 0.001 0.001) but already marked as being in zone solid
This can happen if your surfaces are not (sufficiently) closed.
--> FOAM Warning : 
    From void Foam::meshRefinement::findCellZoneInsideWalk(const Foam::pointField&, const Foam::labelList&, const Foam::labelList&, Foam::labelList&) const
    in file meshRefinement/meshRefinementBaffles.C at line 1788
    Cell 511 at (0.00225 0.00025 0.00025) is inside cellZone air from locationInMesh (0.001 0.001 0.001) but already marked as being in zone solid
This can happen if your surfaces are not (sufficiently) closed.
--> FOAM Warning : 
    From void Foam::meshRefinement::findCellZoneInsideWalk(const Foam::pointField&, const Foam::labelList&, const Foam::labelList&, Foam::labelList&) const
    in file meshRefinement/meshRefinementBaffles.C at line 1788
    Cell 512 at (0.00275 0.00025 0.00025) is inside cellZone air from locationInMesh (0.001 0.001 0.001) but already marked as being in zone solid
This can happen if your surfaces are not (sufficiently) closed.
--> FOAM Warning : 
    From void Foam::meshRefinement::findCellZoneInsideWalk(const Foam::pointField&, const Foam::labelList&, const Foam::labelList&, Foam::labelList&) const
    in file meshRefinement/meshRefinementBaffles.C at line 1788
    Cell 513 at (0.00325 0.00025 0.00025) is inside cellZone air from locationInMesh (0.001 0.001 0.001) but already marked as being in zone solid
This can happen if your surfaces are not (sufficiently) closed.
--> FOAM Warning : 
    From void Foam::meshRefinement::findCellZoneInsideWalk(const Foam::pointField&, const Foam::labelList&, const Foam::labelList&, Foam::labelList&) const
    in file meshRefinement/meshRefinementBaffles.C at line 1788
    Cell 514 at (0.00375 0.00025 0.00025) is inside cellZone air from locationInMesh (0.001 0.001 0.001) but already marked as being in zone solid
This can happen if your surfaces are not (sufficiently) closed.
--> FOAM Warning : 
    From void Foam::meshRefinement::findCellZoneInsideWalk(const Foam::pointField&, const Foam::labelList&, const Foam::labelList&, Foam::labelList&) const
    in file meshRefinement/meshRefinementBaffles.C at line 1788
    Cell 515 at (0.00425 0.00025 0.00025) is inside cellZone air from locationInMesh (0.001 0.001 0.001) but already marked as being in zone solid
This can happen if your surfaces are not (sufficiently) closed.
--> FOAM Warning : 
    From void Foam::meshRefinement::findCellZoneInsideWalk(const Foam::pointField&, const Foam::labelList&, const Foam::labelList&, Foam::labelList&) const
    in file meshRefinement/meshRefinementBaffles.C at line 1788
    Cell 516 at (0.00475 0.00025 0.00025) is inside cellZone air from locationInMesh (0.001 0.001 0.001) but already marked as being in zone solid
This can happen if your surfaces are not (sufficiently) closed.
Found 1 named surfaces with a provided inside point. Assigning cells inside these surfaces to the corresponding cellZone.

For cellZone solid found point (0.005 0.005 0.005) in global region 2 out of 3 regions.
--> FOAM Warning : 
    From void Foam::meshRefinement::findCellZoneInsideWalk(const Foam::pointField&, const Foam::labelList&, const Foam::labelList&, Foam::labelList&) const
    in file meshRefinement/meshRefinementBaffles.C at line 1788
    Cell 1682 at (0.0045625 0.0045625 0.0010625) is inside cellZone solid from locationInMesh (0.005 0.005 0.005) but already marked as being in zone air
This can happen if your surfaces are not (sufficiently) closed.
--> FOAM Warning : 
    From void Foam::meshRefinement::findCellZoneInsideWalk(const Foam::pointField&, const Foam::labelList&, const Foam::labelList&, Foam::labelList&) const
    in file meshRefinement/meshRefinementBaffles.C at line 1788
    Cell 1683 at (0.0050625 0.0045625 0.0010625) is inside cellZone solid from locationInMesh (0.005 0.005 0.005) but already marked as being in zone air
This can happen if your surfaces are not (sufficiently) closed.
--> FOAM Warning : 
    From void Foam::meshRefinement::findCellZoneInsideWalk(const Foam::pointField&, const Foam::labelList&, const Foam::labelList&, Foam::labelList&) const
    in file meshRefinement/meshRefinementBaffles.C at line 1788
    Cell 1704 at (0.0045625 0.0050625 0.0010625) is inside cellZone solid from locationInMesh (0.005 0.005 0.005) but already marked as being in zone air
This can happen if your surfaces are not (sufficiently) closed.
--> FOAM Warning : 
    From void Foam::meshRefinement::findCellZoneInsideWalk(const Foam::pointField&, const Foam::labelList&, const Foam::labelList&, Foam::labelList&) const
    in file meshRefinement/meshRefinementBaffles.C at line 1788
    Cell 1705 at (0.0050625 0.0050625 0.0010625) is inside cellZone solid from locationInMesh (0.005 0.005 0.005) but already marked as being in zone air
This can happen if your surfaces are not (sufficiently) closed.
--> FOAM Warning : 
    From void Foam::meshRefinement::findCellZoneInsideWalk(const Foam::pointField&, const Foam::labelList&, const Foam::labelList&, Foam::labelList&) const
    in file meshRefinement/meshRefinementBaffles.C at line 1788
    Cell 1706 at (0.0055625 0.0050625 0.0010625) is inside cellZone solid from locationInMesh (0.005 0.005 0.005) but already marked as being in zone air
This can happen if your surfaces are not (sufficiently) closed.
--> FOAM Warning : 
    From void Foam::meshRefinement::findCellZoneInsideWalk(const Foam::pointField&, const Foam::labelList&, const Foam::labelList&, Foam::labelList&) const
    in file meshRefinement/meshRefinementBaffles.C at line 1788
    Cell 1727 at (0.0050625 0.0055625 0.0010625) is inside cellZone solid from locationInMesh (0.005 0.005 0.005) but already marked as being in zone air
This can happen if your surfaces are not (sufficiently) closed.
--> FOAM Warning : 
    From void Foam::meshRefinement::findCellZoneInsideWalk(const Foam::pointField&, const Foam::labelList&, const Foam::labelList&, Foam::labelList&) const
    in file meshRefinement/meshRefinementBaffles.C at line 1788
    Cell 2100 at (0.0045625 0.0030625 0.0015625) is inside cellZone solid from locationInMesh (0.005 0.005 0.005) but already marked as being in zone air
This can happen if your surfaces are not (sufficiently) closed.
--> FOAM Warning : 
    From void Foam::meshRefinement::findCellZoneInsideWalk(const Foam::pointField&, const Foam::labelList&, const Foam::labelList&, Foam::labelList&) const
    in file meshRefinement/meshRefinementBaffles.C at line 1788
    Cell 2101 at (0.0050625 0.0030625 0.0015625) is inside cellZone solid from locationInMesh (0.005 0.005 0.005) but already marked as being in zone air
This can happen if your surfaces are not (sufficiently) closed.
--> FOAM Warning : 
    From void Foam::meshRefinement::findCellZoneInsideWalk(const Foam::pointField&, const Foam::labelList&, const Foam::labelList&, Foam::labelList&) const
    in file meshRefinement/meshRefinementBaffles.C at line 1788
    Cell 2102 at (0.0055625 0.0030625 0.0015625) is inside cellZone solid from locationInMesh (0.005 0.005 0.005) but already marked as being in zone air
This can happen if your surfaces are not (sufficiently) closed.
--> FOAM Warning : 
    From void Foam::meshRefinement::findCellZoneInsideWalk(const Foam::pointField&, const Foam::labelList&, const Foam::labelList&, Foam::labelList&) const
    in file meshRefinement/meshRefinementBaffles.C at line 1788
    Cell 2120 at (0.0035625 0.0035625 0.0015625) is inside cellZone solid from locationInMesh (0.005 0.005 0.005) but already marked as being in zone air
This can happen if your surfaces are not (sufficiently) closed.
Walking from known cellZones; crossing a faceZone face changes cellZone

Edge intersection testing:
    Number of edges             : 376242
    Number of edges to retest   : 24756
    Number of intersected edges : 26040
Created baffles in = 0.36 s


After introducing baffles : cells:117566  faces:376242  points:137889
Cells per refinement level:
    0	6820
    1	19178
    2	91568

Introducing baffles to block off problem cells
----------------------------------------------

markFacesOnProblemCells : marked 5292 additional internal faces to be converted into baffles.
Analyzed problem cells in = 0.31 s


Introducing baffles to delete problem cells.

Edge intersection testing:
    Number of edges             : 381534
    Number of edges to retest   : 16824
    Number of intersected edges : 26040
Created baffles in = 0.23 s


After introducing baffles : cells:117566  faces:381534  points:137889
Cells per refinement level:
    0	6820
    1	19178
    2	91568
Setting cellZones according to locationsInMesh:
Location : (0.005 0.005 0.005)
    cellZone : solid
Location : (0.001 0.001 0.001)
    cellZone : air

For cellZone solid found point (0.005 0.005 0.005) in global region 507 out of 2649 regions.
For cellZone air found point (0.001 0.001 0.001) in global region 507 out of 2649 regions.
--> FOAM Warning : 
    From void Foam::meshRefinement::findCellZoneInsideWalk(const Foam::pointField&, const Foam::labelList&, const Foam::labelList&, Foam::labelList&) const
    in file meshRefinement/meshRefinementBaffles.C at line 1788
    Cell 507 at (0.00025 0.00025 0.00025) is inside cellZone air from locationInMesh (0.001 0.001 0.001) but already marked as being in zone solid
This can happen if your surfaces are not (sufficiently) closed.
--> FOAM Warning : 
    From void Foam::meshRefinement::findCellZoneInsideWalk(const Foam::pointField&, const Foam::labelList&, const Foam::labelList&, Foam::labelList&) const
    in file meshRefinement/meshRefinementBaffles.C at line 1788
    Cell 508 at (0.00075 0.00025 0.00025) is inside cellZone air from locationInMesh (0.001 0.001 0.001) but already marked as being in zone solid
This can happen if your surfaces are not (sufficiently) closed.
--> FOAM Warning : 
    From void Foam::meshRefinement::findCellZoneInsideWalk(const Foam::pointField&, const Foam::labelList&, const Foam::labelList&, Foam::labelList&) const
    in file meshRefinement/meshRefinementBaffles.C at line 1788
    Cell 509 at (0.00125 0.00025 0.00025) is inside cellZone air from locationInMesh (0.001 0.001 0.001) but already marked as being in zone solid
This can happen if your surfaces are not (sufficiently) closed.
--> FOAM Warning : 
    From void Foam::meshRefinement::findCellZoneInsideWalk(const Foam::pointField&, const Foam::labelList&, const Foam::labelList&, Foam::labelList&) const
    in file meshRefinement/meshRefinementBaffles.C at line 1788
    Cell 510 at (0.00175 0.00025 0.00025) is inside cellZone air from locationInMesh (0.001 0.001 0.001) but already marked as being in zone solid
This can happen if your surfaces are not (sufficiently) closed.
--> FOAM Warning : 
    From void Foam::meshRefinement::findCellZoneInsideWalk(const Foam::pointField&, const Foam::labelList&, const Foam::labelList&, Foam::labelList&) const
    in file meshRefinement/meshRefinementBaffles.C at line 1788
    Cell 511 at (0.00225 0.00025 0.00025) is inside cellZone air from locationInMesh (0.001 0.001 0.001) but already marked as being in zone solid
This can happen if your surfaces are not (sufficiently) closed.
--> FOAM Warning : 
    From void Foam::meshRefinement::findCellZoneInsideWalk(const Foam::pointField&, const Foam::labelList&, const Foam::labelList&, Foam::labelList&) const
    in file meshRefinement/meshRefinementBaffles.C at line 1788
    Cell 512 at (0.00275 0.00025 0.00025) is inside cellZone air from locationInMesh (0.001 0.001 0.001) but already marked as being in zone solid
This can happen if your surfaces are not (sufficiently) closed.
--> FOAM Warning : 
    From void Foam::meshRefinement::findCellZoneInsideWalk(const Foam::pointField&, const Foam::labelList&, const Foam::labelList&, Foam::labelList&) const
    in file meshRefinement/meshRefinementBaffles.C at line 1788
    Cell 513 at (0.00325 0.00025 0.00025) is inside cellZone air from locationInMesh (0.001 0.001 0.001) but already marked as being in zone solid
This can happen if your surfaces are not (sufficiently) closed.
--> FOAM Warning : 
    From void Foam::meshRefinement::findCellZoneInsideWalk(const Foam::pointField&, const Foam::labelList&, const Foam::labelList&, Foam::labelList&) const
    in file meshRefinement/meshRefinementBaffles.C at line 1788
    Cell 514 at (0.00375 0.00025 0.00025) is inside cellZone air from locationInMesh (0.001 0.001 0.001) but already marked as being in zone solid
This can happen if your surfaces are not (sufficiently) closed.
--> FOAM Warning : 
    From void Foam::meshRefinement::findCellZoneInsideWalk(const Foam::pointField&, const Foam::labelList&, const Foam::labelList&, Foam::labelList&) const
    in file meshRefinement/meshRefinementBaffles.C at line 1788
    Cell 515 at (0.00425 0.00025 0.00025) is inside cellZone air from locationInMesh (0.001 0.001 0.001) but already marked as being in zone solid
This can happen if your surfaces are not (sufficiently) closed.
--> FOAM Warning : 
    From void Foam::meshRefinement::findCellZoneInsideWalk(const Foam::pointField&, const Foam::labelList&, const Foam::labelList&, Foam::labelList&) const
    in file meshRefinement/meshRefinementBaffles.C at line 1788
    Cell 516 at (0.00475 0.00025 0.00025) is inside cellZone air from locationInMesh (0.001 0.001 0.001) but already marked as being in zone solid
This can happen if your surfaces are not (sufficiently) closed.
Found 1 named surfaces with a provided inside point. Assigning cells inside these surfaces to the corresponding cellZone.

For cellZone solid found point (0.005 0.005 0.005) in global region 694 out of 2650 regions.
--> FOAM Warning : 
    From void Foam::meshRefinement::findCellZoneInsideWalk(const Foam::pointField&, const Foam::labelList&, const Foam::labelList&, Foam::labelList&) const
    in file meshRefinement/meshRefinementBaffles.C at line 1788
    Cell 1682 at (0.0045625 0.0045625 0.0010625) is inside cellZone solid from locationInMesh (0.005 0.005 0.005) but already marked as being in zone air
This can happen if your surfaces are not (sufficiently) closed.
--> FOAM Warning : 
    From void Foam::meshRefinement::findCellZoneInsideWalk(const Foam::pointField&, const Foam::labelList&, const Foam::labelList&, Foam::labelList&) const
    in file meshRefinement/meshRefinementBaffles.C at line 1788
    Cell 1683 at (0.0050625 0.0045625 0.0010625) is inside cellZone solid from locationInMesh (0.005 0.005 0.005) but already marked as being in zone air
This can happen if your surfaces are not (sufficiently) closed.
--> FOAM Warning : 
    From void Foam::meshRefinement::findCellZoneInsideWalk(const Foam::pointField&, const Foam::labelList&, const Foam::labelList&, Foam::labelList&) const
    in file meshRefinement/meshRefinementBaffles.C at line 1788
    Cell 1704 at (0.0045625 0.0050625 0.0010625) is inside cellZone solid from locationInMesh (0.005 0.005 0.005) but already marked as being in zone air
This can happen if your surfaces are not (sufficiently) closed.
--> FOAM Warning : 
    From void Foam::meshRefinement::findCellZoneInsideWalk(const Foam::pointField&, const Foam::labelList&, const Foam::labelList&, Foam::labelList&) const
    in file meshRefinement/meshRefinementBaffles.C at line 1788
    Cell 1705 at (0.0050625 0.0050625 0.0010625) is inside cellZone solid from locationInMesh (0.005 0.005 0.005) but already marked as being in zone air
This can happen if your surfaces are not (sufficiently) closed.
--> FOAM Warning : 
    From void Foam::meshRefinement::findCellZoneInsideWalk(const Foam::pointField&, const Foam::labelList&, const Foam::labelList&, Foam::labelList&) const
    in file meshRefinement/meshRefinementBaffles.C at line 1788
    Cell 1706 at (0.0055625 0.0050625 0.0010625) is inside cellZone solid from locationInMesh (0.005 0.005 0.005) but already marked as being in zone air
This can happen if your surfaces are not (sufficiently) closed.
--> FOAM Warning : 
    From void Foam::meshRefinement::findCellZoneInsideWalk(const Foam::pointField&, const Foam::labelList&, const Foam::labelList&, Foam::labelList&) const
    in file meshRefinement/meshRefinementBaffles.C at line 1788
    Cell 1727 at (0.0050625 0.0055625 0.0010625) is inside cellZone solid from locationInMesh (0.005 0.005 0.005) but already marked as being in zone air
This can happen if your surfaces are not (sufficiently) closed.
--> FOAM Warning : 
    From void Foam::meshRefinement::findCellZoneInsideWalk(const Foam::pointField&, const Foam::labelList&, const Foam::labelList&, Foam::labelList&) const
    in file meshRefinement/meshRefinementBaffles.C at line 1788
    Cell 2100 at (0.0045625 0.0030625 0.0015625) is inside cellZone solid from locationInMesh (0.005 0.005 0.005) but already marked as being in zone air
This can happen if your surfaces are not (sufficiently) closed.
--> FOAM Warning : 
    From void Foam::meshRefinement::findCellZoneInsideWalk(const Foam::pointField&, const Foam::labelList&, const Foam::labelList&, Foam::labelList&) const
    in file meshRefinement/meshRefinementBaffles.C at line 1788
    Cell 2101 at (0.0050625 0.0030625 0.0015625) is inside cellZone solid from locationInMesh (0.005 0.005 0.005) but already marked as being in zone air
This can happen if your surfaces are not (sufficiently) closed.
--> FOAM Warning : 
    From void Foam::meshRefinement::findCellZoneInsideWalk(const Foam::pointField&, const Foam::labelList&, const Foam::labelList&, Foam::labelList&) const
    in file meshRefinement/meshRefinementBaffles.C at line 1788
    Cell 2102 at (0.0055625 0.0030625 0.0015625) is inside cellZone solid from locationInMesh (0.005 0.005 0.005) but already marked as being in zone air
This can happen if your surfaces are not (sufficiently) closed.
--> FOAM Warning : 
    From void Foam::meshRefinement::findCellZoneInsideWalk(const Foam::pointField&, const Foam::labelList&, const Foam::labelList&, Foam::labelList&) const
    in file meshRefinement/meshRefinementBaffles.C at line 1788
    Cell 2120 at (0.0035625 0.0035625 0.0015625) is inside cellZone solid from locationInMesh (0.005 0.005 0.005) but already marked as being in zone air
This can happen if your surfaces are not (sufficiently) closed.
Walking from known cellZones; crossing a faceZone face changes cellZone

Edge intersection testing:
    Number of edges             : 381534
    Number of edges to retest   : 29316
    Number of intersected edges : 26040

Remove unreachable sections of mesh
-----------------------------------

Keeping all cells containing points 2((0.005 0.005 0.005) (0.001 0.001 0.001))
Selected for keeping : 114918 cells.
Edge intersection testing:
    Number of edges             : 364710
    Number of edges to retest   : 0
    Number of intersected edges : 22704
Split mesh in = 0.63 s


After subsetting : cells:114918  faces:364710  points:134983
Cells per refinement level:
    0	4172
    1	19178
    2	91568

Introducing zones for interfaces
--------------------------------

Setting cellZones according to named surfaces:
Surface : sphere
    faceZones : 1(sphere_surface)
    cellZone  : solid

Setting cellZones according to locationsInMesh:
Location : (0.005 0.005 0.005)
    cellZone : solid
Location : (0.001 0.001 0.001)
    cellZone : air

For cellZone solid found point (0.005 0.005 0.005) in global region 0 out of 1 regions.
For cellZone air found point (0.001 0.001 0.001) in global region 0 out of 1 regions.
--> FOAM Warning : 
    From void Foam::meshRefinement::findCellZoneInsideWalk(const Foam::pointField&, const Foam::labelList&, const Foam::labelList&, Foam::labelList&) const
    in file meshRefinement/meshRefinementBaffles.C at line 1788
    Cell 0 at (0.00025 0.00025 0.00025) is inside cellZone air from locationInMesh (0.001 0.001 0.001) but already marked as being in zone solid
This can happen if your surfaces are not (sufficiently) closed.
--> FOAM Warning : 
    From void Foam::meshRefinement::findCellZoneInsideWalk(const Foam::pointField&, const Foam::labelList&, const Foam::labelList&, Foam::labelList&) const
    in file meshRefinement/meshRefinementBaffles.C at line 1788
    Cell 1 at (0.00075 0.00025 0.00025) is inside cellZone air from locationInMesh (0.001 0.001 0.001) but already marked as being in zone solid
This can happen if your surfaces are not (sufficiently) closed.
--> FOAM Warning : 
    From void Foam::meshRefinement::findCellZoneInsideWalk(const Foam::pointField&, const Foam::labelList&, const Foam::labelList&, Foam::labelList&) const
    in file meshRefinement/meshRefinementBaffles.C at line 1788
    Cell 2 at (0.00125 0.00025 0.00025) is inside cellZone air from locationInMesh (0.001 0.001 0.001) but already marked as being in zone solid
This can happen if your surfaces are not (sufficiently) closed.
--> FOAM Warning : 
    From void Foam::meshRefinement::findCellZoneInsideWalk(const Foam::pointField&, const Foam::labelList&, const Foam::labelList&, Foam::labelList&) const
    in file meshRefinement/meshRefinementBaffles.C at line 1788
    Cell 3 at (0.00175 0.00025 0.00025) is inside cellZone air from locationInMesh (0.001 0.001 0.001) but already marked as being in zone solid
This can happen if your surfaces are not (sufficiently) closed.
--> FOAM Warning : 
    From void Foam::meshRefinement::findCellZoneInsideWalk(const Foam::pointField&, const Foam::labelList&, const Foam::labelList&, Foam::labelList&) const
    in file meshRefinement/meshRefinementBaffles.C at line 1788
    Cell 4 at (0.00225 0.00025 0.00025) is inside cellZone air from locationInMesh (0.001 0.001 0.001) but already marked as being in zone solid
This can happen if your surfaces are not (sufficiently) closed.
--> FOAM Warning : 
    From void Foam::meshRefinement::findCellZoneInsideWalk(const Foam::pointField&, const Foam::labelList&, const Foam::labelList&, Foam::labelList&) const
    in file meshRefinement/meshRefinementBaffles.C at line 1788
    Cell 5 at (0.00275 0.00025 0.00025) is inside cellZone air from locationInMesh (0.001 0.001 0.001) but already marked as being in zone solid
This can happen if your surfaces are not (sufficiently) closed.
--> FOAM Warning : 
    From void Foam::meshRefinement::findCellZoneInsideWalk(const Foam::pointField&, const Foam::labelList&, const Foam::labelList&, Foam::labelList&) const
    in file meshRefinement/meshRefinementBaffles.C at line 1788
    Cell 6 at (0.00325 0.00025 0.00025) is inside cellZone air from locationInMesh (0.001 0.001 0.001) but already marked as being in zone solid
This can happen if your surfaces are not (sufficiently) closed.
--> FOAM Warning : 
    From void Foam::meshRefinement::findCellZoneInsideWalk(const Foam::pointField&, const Foam::labelList&, const Foam::labelList&, Foam::labelList&) const
    in file meshRefinement/meshRefinementBaffles.C at line 1788
    Cell 7 at (0.00375 0.00025 0.00025) is inside cellZone air from locationInMesh (0.001 0.001 0.001) but already marked as being in zone solid
This can happen if your surfaces are not (sufficiently) closed.
--> FOAM Warning : 
    From void Foam::meshRefinement::findCellZoneInsideWalk(const Foam::pointField&, const Foam::labelList&, const Foam::labelList&, Foam::labelList&) const
    in file meshRefinement/meshRefinementBaffles.C at line 1788
    Cell 8 at (0.00425 0.00025 0.00025) is inside cellZone air from locationInMesh (0.001 0.001 0.001) but already marked as being in zone solid
This can happen if your surfaces are not (sufficiently) closed.
--> FOAM Warning : 
    From void Foam::meshRefinement::findCellZoneInsideWalk(const Foam::pointField&, const Foam::labelList&, const Foam::labelList&, Foam::labelList&) const
    in file meshRefinement/meshRefinementBaffles.C at line 1788
    Cell 9 at (0.00475 0.00025 0.00025) is inside cellZone air from locationInMesh (0.001 0.001 0.001) but already marked as being in zone solid
This can happen if your surfaces are not (sufficiently) closed.
Found 1 named surfaces with a provided inside point. Assigning cells inside these surfaces to the corresponding cellZone.

For cellZone solid found point (0.005 0.005 0.005) in global region 1 out of 2 regions.
--> FOAM Warning : 
    From void Foam::meshRefinement::findCellZoneInsideWalk(const Foam::pointField&, const Foam::labelList&, const Foam::labelList&, Foam::labelList&) const
    in file meshRefinement/meshRefinementBaffles.C at line 1788
    Cell 989 at (0.0045625 0.0045625 0.0010625) is inside cellZone solid from locationInMesh (0.005 0.005 0.005) but already marked as being in zone air
This can happen if your surfaces are not (sufficiently) closed.
--> FOAM Warning : 
    From void Foam::meshRefinement::findCellZoneInsideWalk(const Foam::pointField&, const Foam::labelList&, const Foam::labelList&, Foam::labelList&) const
    in file meshRefinement/meshRefinementBaffles.C at line 1788
    Cell 990 at (0.0050625 0.0045625 0.0010625) is inside cellZone solid from locationInMesh (0.005 0.005 0.005) but already marked as being in zone air
This can happen if your surfaces are not (sufficiently) closed.
--> FOAM Warning : 
    From void Foam::meshRefinement::findCellZoneInsideWalk(const Foam::pointField&, const Foam::labelList&, const Foam::labelList&, Foam::labelList&) const
    in file meshRefinement/meshRefinementBaffles.C at line 1788
    Cell 1009 at (0.0045625 0.0050625 0.0010625) is inside cellZone solid from locationInMesh (0.005 0.005 0.005) but already marked as being in zone air
This can happen if your surfaces are not (sufficiently) closed.
--> FOAM Warning : 
    From void Foam::meshRefinement::findCellZoneInsideWalk(const Foam::pointField&, const Foam::labelList&, const Foam::labelList&, Foam::labelList&) const
    in file meshRefinement/meshRefinementBaffles.C at line 1788
    Cell 1010 at (0.0050625 0.0050625 0.0010625) is inside cellZone solid from locationInMesh (0.005 0.005 0.005) but already marked as being in zone air
This can happen if your surfaces are not (sufficiently) closed.
--> FOAM Warning : 
    From void Foam::meshRefinement::findCellZoneInsideWalk(const Foam::pointField&, const Foam::labelList&, const Foam::labelList&, Foam::labelList&) const
    in file meshRefinement/meshRefinementBaffles.C at line 1788
    Cell 1011 at (0.0055625 0.0050625 0.0010625) is inside cellZone solid from locationInMesh (0.005 0.005 0.005) but already marked as being in zone air
This can happen if your surfaces are not (sufficiently) closed.
--> FOAM Warning : 
    From void Foam::meshRefinement::findCellZoneInsideWalk(const Foam::pointField&, const Foam::labelList&, const Foam::labelList&, Foam::labelList&) const
    in file meshRefinement/meshRefinementBaffles.C at line 1788
    Cell 1030 at (0.0050625 0.0055625 0.0010625) is inside cellZone solid from locationInMesh (0.005 0.005 0.005) but already marked as being in zone air
This can happen if your surfaces are not (sufficiently) closed.
--> FOAM Warning : 
    From void Foam::meshRefinement::findCellZoneInsideWalk(const Foam::pointField&, const Foam::labelList&, const Foam::labelList&, Foam::labelList&) const
    in file meshRefinement/meshRefinementBaffles.C at line 1788
    Cell 1329 at (0.0045625 0.0030625 0.0015625) is inside cellZone solid from locationInMesh (0.005 0.005 0.005) but already marked as being in zone air
This can happen if your surfaces are not (sufficiently) closed.
--> FOAM Warning : 
    From void Foam::meshRefinement::findCellZoneInsideWalk(const Foam::pointField&, const Foam::labelList&, const Foam::labelList&, Foam::labelList&) const
    in file meshRefinement/meshRefinementBaffles.C at line 1788
    Cell 1330 at (0.0050625 0.0030625 0.0015625) is inside cellZone solid from locationInMesh (0.005 0.005 0.005) but already marked as being in zone air
This can happen if your surfaces are not (sufficiently) closed.
--> FOAM Warning : 
    From void Foam::meshRefinement::findCellZoneInsideWalk(const Foam::pointField&, const Foam::labelList&, const Foam::labelList&, Foam::labelList&) const
    in file meshRefinement/meshRefinementBaffles.C at line 1788
    Cell 1331 at (0.0055625 0.0030625 0.0015625) is inside cellZone solid from locationInMesh (0.005 0.005 0.005) but already marked as being in zone air
This can happen if your surfaces are not (sufficiently) closed.
--> FOAM Warning : 
    From void Foam::meshRefinement::findCellZoneInsideWalk(const Foam::pointField&, const Foam::labelList&, const Foam::labelList&, Foam::labelList&) const
    in file meshRefinement/meshRefinementBaffles.C at line 1788
    Cell 1347 at (0.0035625 0.0035625 0.0015625) is inside cellZone solid from locationInMesh (0.005 0.005 0.005) but already marked as being in zone air
This can happen if your surfaces are not (sufficiently) closed.
Walking from known cellZones; crossing a faceZone face changes cellZone

Setting faceZones according to neighbouring cellZones:

CellZones:
    solid	size:47678
    air	size:67240

FaceZones:
    sphere_surface	size:19368

Edge intersection testing:
    Number of edges             : 364710
    Number of edges to retest   : 0
    Number of intersected edges : 22704

Handling cells with snap problems
---------------------------------

Introducing baffles for 22704 faces that are intersected by the surface.

Setting cellZones according to locationsInMesh:
Location : (0.005 0.005 0.005)
    cellZone : solid
Location : (0.001 0.001 0.001)
    cellZone : air

For cellZone solid found point (0.005 0.005 0.005) in global region 0 out of 1 regions.
For cellZone air found point (0.001 0.001 0.001) in global region 0 out of 1 regions.
--> FOAM Warning : 
    From void Foam::meshRefinement::findCellZoneInsideWalk(const Foam::pointField&, const Foam::labelList&, const Foam::labelList&, Foam::labelList&) const
    in file meshRefinement/meshRefinementBaffles.C at line 1788
    Cell 0 at (0.00025 0.00025 0.00025) is inside cellZone air from locationInMesh (0.001 0.001 0.001) but already marked as being in zone solid
This can happen if your surfaces are not (sufficiently) closed.
--> FOAM Warning : 
    From void Foam::meshRefinement::findCellZoneInsideWalk(const Foam::pointField&, const Foam::labelList&, const Foam::labelList&, Foam::labelList&) const
    in file meshRefinement/meshRefinementBaffles.C at line 1788
    Cell 1 at (0.00075 0.00025 0.00025) is inside cellZone air from locationInMesh (0.001 0.001 0.001) but already marked as being in zone solid
This can happen if your surfaces are not (sufficiently) closed.
--> FOAM Warning : 
    From void Foam::meshRefinement::findCellZoneInsideWalk(const Foam::pointField&, const Foam::labelList&, const Foam::labelList&, Foam::labelList&) const
    in file meshRefinement/meshRefinementBaffles.C at line 1788
    Cell 2 at (0.00125 0.00025 0.00025) is inside cellZone air from locationInMesh (0.001 0.001 0.001) but already marked as being in zone solid
This can happen if your surfaces are not (sufficiently) closed.
--> FOAM Warning : 
    From void Foam::meshRefinement::findCellZoneInsideWalk(const Foam::pointField&, const Foam::labelList&, const Foam::labelList&, Foam::labelList&) const
    in file meshRefinement/meshRefinementBaffles.C at line 1788
    Cell 3 at (0.00175 0.00025 0.00025) is inside cellZone air from locationInMesh (0.001 0.001 0.001) but already marked as being in zone solid
This can happen if your surfaces are not (sufficiently) closed.
--> FOAM Warning : 
    From void Foam::meshRefinement::findCellZoneInsideWalk(const Foam::pointField&, const Foam::labelList&, const Foam::labelList&, Foam::labelList&) const
    in file meshRefinement/meshRefinementBaffles.C at line 1788
    Cell 4 at (0.00225 0.00025 0.00025) is inside cellZone air from locationInMesh (0.001 0.001 0.001) but already marked as being in zone solid
This can happen if your surfaces are not (sufficiently) closed.
--> FOAM Warning : 
    From void Foam::meshRefinement::findCellZoneInsideWalk(const Foam::pointField&, const Foam::labelList&, const Foam::labelList&, Foam::labelList&) const
    in file meshRefinement/meshRefinementBaffles.C at line 1788
    Cell 5 at (0.00275 0.00025 0.00025) is inside cellZone air from locationInMesh (0.001 0.001 0.001) but already marked as being in zone solid
This can happen if your surfaces are not (sufficiently) closed.
--> FOAM Warning : 
    From void Foam::meshRefinement::findCellZoneInsideWalk(const Foam::pointField&, const Foam::labelList&, const Foam::labelList&, Foam::labelList&) const
    in file meshRefinement/meshRefinementBaffles.C at line 1788
    Cell 6 at (0.00325 0.00025 0.00025) is inside cellZone air from locationInMesh (0.001 0.001 0.001) but already marked as being in zone solid
This can happen if your surfaces are not (sufficiently) closed.
--> FOAM Warning : 
    From void Foam::meshRefinement::findCellZoneInsideWalk(const Foam::pointField&, const Foam::labelList&, const Foam::labelList&, Foam::labelList&) const
    in file meshRefinement/meshRefinementBaffles.C at line 1788
    Cell 7 at (0.00375 0.00025 0.00025) is inside cellZone air from locationInMesh (0.001 0.001 0.001) but already marked as being in zone solid
This can happen if your surfaces are not (sufficiently) closed.
--> FOAM Warning : 
    From void Foam::meshRefinement::findCellZoneInsideWalk(const Foam::pointField&, const Foam::labelList&, const Foam::labelList&, Foam::labelList&) const
    in file meshRefinement/meshRefinementBaffles.C at line 1788
    Cell 8 at (0.00425 0.00025 0.00025) is inside cellZone air from locationInMesh (0.001 0.001 0.001) but already marked as being in zone solid
This can happen if your surfaces are not (sufficiently) closed.
--> FOAM Warning : 
    From void Foam::meshRefinement::findCellZoneInsideWalk(const Foam::pointField&, const Foam::labelList&, const Foam::labelList&, Foam::labelList&) const
    in file meshRefinement/meshRefinementBaffles.C at line 1788
    Cell 9 at (0.00475 0.00025 0.00025) is inside cellZone air from locationInMesh (0.001 0.001 0.001) but already marked as being in zone solid
This can happen if your surfaces are not (sufficiently) closed.
Found 1 named surfaces with a provided inside point. Assigning cells inside these surfaces to the corresponding cellZone.

For cellZone solid found point (0.005 0.005 0.005) in global region 1 out of 2 regions.
--> FOAM Warning : 
    From void Foam::meshRefinement::findCellZoneInsideWalk(const Foam::pointField&, const Foam::labelList&, const Foam::labelList&, Foam::labelList&) const
    in file meshRefinement/meshRefinementBaffles.C at line 1788
    Cell 989 at (0.0045625 0.0045625 0.0010625) is inside cellZone solid from locationInMesh (0.005 0.005 0.005) but already marked as being in zone air
This can happen if your surfaces are not (sufficiently) closed.
--> FOAM Warning : 
    From void Foam::meshRefinement::findCellZoneInsideWalk(const Foam::pointField&, const Foam::labelList&, const Foam::labelList&, Foam::labelList&) const
    in file meshRefinement/meshRefinementBaffles.C at line 1788
    Cell 990 at (0.0050625 0.0045625 0.0010625) is inside cellZone solid from locationInMesh (0.005 0.005 0.005) but already marked as being in zone air
This can happen if your surfaces are not (sufficiently) closed.
--> FOAM Warning : 
    From void Foam::meshRefinement::findCellZoneInsideWalk(const Foam::pointField&, const Foam::labelList&, const Foam::labelList&, Foam::labelList&) const
    in file meshRefinement/meshRefinementBaffles.C at line 1788
    Cell 1009 at (0.0045625 0.0050625 0.0010625) is inside cellZone solid from locationInMesh (0.005 0.005 0.005) but already marked as being in zone air
This can happen if your surfaces are not (sufficiently) closed.
--> FOAM Warning : 
    From void Foam::meshRefinement::findCellZoneInsideWalk(const Foam::pointField&, const Foam::labelList&, const Foam::labelList&, Foam::labelList&) const
    in file meshRefinement/meshRefinementBaffles.C at line 1788
    Cell 1010 at (0.0050625 0.0050625 0.0010625) is inside cellZone solid from locationInMesh (0.005 0.005 0.005) but already marked as being in zone air
This can happen if your surfaces are not (sufficiently) closed.
--> FOAM Warning : 
    From void Foam::meshRefinement::findCellZoneInsideWalk(const Foam::pointField&, const Foam::labelList&, const Foam::labelList&, Foam::labelList&) const
    in file meshRefinement/meshRefinementBaffles.C at line 1788
    Cell 1011 at (0.0055625 0.0050625 0.0010625) is inside cellZone solid from locationInMesh (0.005 0.005 0.005) but already marked as being in zone air
This can happen if your surfaces are not (sufficiently) closed.
--> FOAM Warning : 
    From void Foam::meshRefinement::findCellZoneInsideWalk(const Foam::pointField&, const Foam::labelList&, const Foam::labelList&, Foam::labelList&) const
    in file meshRefinement/meshRefinementBaffles.C at line 1788
    Cell 1030 at (0.0050625 0.0055625 0.0010625) is inside cellZone solid from locationInMesh (0.005 0.005 0.005) but already marked as being in zone air
This can happen if your surfaces are not (sufficiently) closed.
--> FOAM Warning : 
    From void Foam::meshRefinement::findCellZoneInsideWalk(const Foam::pointField&, const Foam::labelList&, const Foam::labelList&, Foam::labelList&) const
    in file meshRefinement/meshRefinementBaffles.C at line 1788
    Cell 1329 at (0.0045625 0.0030625 0.0015625) is inside cellZone solid from locationInMesh (0.005 0.005 0.005) but already marked as being in zone air
This can happen if your surfaces are not (sufficiently) closed.
--> FOAM Warning : 
    From void Foam::meshRefinement::findCellZoneInsideWalk(const Foam::pointField&, const Foam::labelList&, const Foam::labelList&, Foam::labelList&) const
    in file meshRefinement/meshRefinementBaffles.C at line 1788
    Cell 1330 at (0.0050625 0.0030625 0.0015625) is inside cellZone solid from locationInMesh (0.005 0.005 0.005) but already marked as being in zone air
This can happen if your surfaces are not (sufficiently) closed.
--> FOAM Warning : 
    From void Foam::meshRefinement::findCellZoneInsideWalk(const Foam::pointField&, const Foam::labelList&, const Foam::labelList&, Foam::labelList&) const
    in file meshRefinement/meshRefinementBaffles.C at line 1788
    Cell 1331 at (0.0055625 0.0030625 0.0015625) is inside cellZone solid from locationInMesh (0.005 0.005 0.005) but already marked as being in zone air
This can happen if your surfaces are not (sufficiently) closed.
--> FOAM Warning : 
    From void Foam::meshRefinement::findCellZoneInsideWalk(const Foam::pointField&, const Foam::labelList&, const Foam::labelList&, Foam::labelList&) const
    in file meshRefinement/meshRefinementBaffles.C at line 1788
    Cell 1347 at (0.0035625 0.0035625 0.0015625) is inside cellZone solid from locationInMesh (0.005 0.005 0.005) but already marked as being in zone air
This can happen if your surfaces are not (sufficiently) closed.
Walking from known cellZones; crossing a faceZone face changes cellZone

Edge intersection testing:
    Number of edges             : 364710
    Number of edges to retest   : 13980
    Number of intersected edges : 22704
Created baffles in = 0.9 s


After introducing baffles : cells:114918  faces:364710  points:134983
Cells per refinement level:
    0	4172
    1	19178
    2	91568

Introducing baffles to block off problem cells
----------------------------------------------

markFacesOnProblemCells : marked 0 additional internal faces to be converted into baffles.
Analyzed problem cells in = 0.35 s


Introducing baffles to delete problem cells.

Created baffles in = 0.06 s


After introducing baffles : cells:114918  faces:364710  points:134983
Cells per refinement level:
    0	4172
    1	19178
    2	91568
Setting cellZones according to locationsInMesh:
Location : (0.005 0.005 0.005)
    cellZone : solid
Location : (0.001 0.001 0.001)
    cellZone : air

For cellZone solid found point (0.005 0.005 0.005) in global region 0 out of 1 regions.
For cellZone air found point (0.001 0.001 0.001) in global region 0 out of 1 regions.
--> FOAM Warning : 
    From void Foam::meshRefinement::findCellZoneInsideWalk(const Foam::pointField&, const Foam::labelList&, const Foam::labelList&, Foam::labelList&) const
    in file meshRefinement/meshRefinementBaffles.C at line 1788
    Cell 0 at (0.00025 0.00025 0.00025) is inside cellZone air from locationInMesh (0.001 0.001 0.001) but already marked as being in zone solid
This can happen if your surfaces are not (sufficiently) closed.
--> FOAM Warning : 
    From void Foam::meshRefinement::findCellZoneInsideWalk(const Foam::pointField&, const Foam::labelList&, const Foam::labelList&, Foam::labelList&) const
    in file meshRefinement/meshRefinementBaffles.C at line 1788
    Cell 1 at (0.00075 0.00025 0.00025) is inside cellZone air from locationInMesh (0.001 0.001 0.001) but already marked as being in zone solid
This can happen if your surfaces are not (sufficiently) closed.
--> FOAM Warning : 
    From void Foam::meshRefinement::findCellZoneInsideWalk(const Foam::pointField&, const Foam::labelList&, const Foam::labelList&, Foam::labelList&) const
    in file meshRefinement/meshRefinementBaffles.C at line 1788
    Cell 2 at (0.00125 0.00025 0.00025) is inside cellZone air from locationInMesh (0.001 0.001 0.001) but already marked as being in zone solid
This can happen if your surfaces are not (sufficiently) closed.
--> FOAM Warning : 
    From void Foam::meshRefinement::findCellZoneInsideWalk(const Foam::pointField&, const Foam::labelList&, const Foam::labelList&, Foam::labelList&) const
    in file meshRefinement/meshRefinementBaffles.C at line 1788
    Cell 3 at (0.00175 0.00025 0.00025) is inside cellZone air from locationInMesh (0.001 0.001 0.001) but already marked as being in zone solid
This can happen if your surfaces are not (sufficiently) closed.
--> FOAM Warning : 
    From void Foam::meshRefinement::findCellZoneInsideWalk(const Foam::pointField&, const Foam::labelList&, const Foam::labelList&, Foam::labelList&) const
    in file meshRefinement/meshRefinementBaffles.C at line 1788
    Cell 4 at (0.00225 0.00025 0.00025) is inside cellZone air from locationInMesh (0.001 0.001 0.001) but already marked as being in zone solid
This can happen if your surfaces are not (sufficiently) closed.
--> FOAM Warning : 
    From void Foam::meshRefinement::findCellZoneInsideWalk(const Foam::pointField&, const Foam::labelList&, const Foam::labelList&, Foam::labelList&) const
    in file meshRefinement/meshRefinementBaffles.C at line 1788
    Cell 5 at (0.00275 0.00025 0.00025) is inside cellZone air from locationInMesh (0.001 0.001 0.001) but already marked as being in zone solid
This can happen if your surfaces are not (sufficiently) closed.
--> FOAM Warning : 
    From void Foam::meshRefinement::findCellZoneInsideWalk(const Foam::pointField&, const Foam::labelList&, const Foam::labelList&, Foam::labelList&) const
    in file meshRefinement/meshRefinementBaffles.C at line 1788
    Cell 6 at (0.00325 0.00025 0.00025) is inside cellZone air from locationInMesh (0.001 0.001 0.001) but already marked as being in zone solid
This can happen if your surfaces are not (sufficiently) closed.
--> FOAM Warning : 
    From void Foam::meshRefinement::findCellZoneInsideWalk(const Foam::pointField&, const Foam::labelList&, const Foam::labelList&, Foam::labelList&) const
    in file meshRefinement/meshRefinementBaffles.C at line 1788
    Cell 7 at (0.00375 0.00025 0.00025) is inside cellZone air from locationInMesh (0.001 0.001 0.001) but already marked as being in zone solid
This can happen if your surfaces are not (sufficiently) closed.
--> FOAM Warning : 
    From void Foam::meshRefinement::findCellZoneInsideWalk(const Foam::pointField&, const Foam::labelList&, const Foam::labelList&, Foam::labelList&) const
    in file meshRefinement/meshRefinementBaffles.C at line 1788
    Cell 8 at (0.00425 0.00025 0.00025) is inside cellZone air from locationInMesh (0.001 0.001 0.001) but already marked as being in zone solid
This can happen if your surfaces are not (sufficiently) closed.
--> FOAM Warning : 
    From void Foam::meshRefinement::findCellZoneInsideWalk(const Foam::pointField&, const Foam::labelList&, const Foam::labelList&, Foam::labelList&) const
    in file meshRefinement/meshRefinementBaffles.C at line 1788
    Cell 9 at (0.00475 0.00025 0.00025) is inside cellZone air from locationInMesh (0.001 0.001 0.001) but already marked as being in zone solid
This can happen if your surfaces are not (sufficiently) closed.
Found 1 named surfaces with a provided inside point. Assigning cells inside these surfaces to the corresponding cellZone.

For cellZone solid found point (0.005 0.005 0.005) in global region 1 out of 2 regions.
--> FOAM Warning : 
    From void Foam::meshRefinement::findCellZoneInsideWalk(const Foam::pointField&, const Foam::labelList&, const Foam::labelList&, Foam::labelList&) const
    in file meshRefinement/meshRefinementBaffles.C at line 1788
    Cell 989 at (0.0045625 0.0045625 0.0010625) is inside cellZone solid from locationInMesh (0.005 0.005 0.005) but already marked as being in zone air
This can happen if your surfaces are not (sufficiently) closed.
--> FOAM Warning : 
    From void Foam::meshRefinement::findCellZoneInsideWalk(const Foam::pointField&, const Foam::labelList&, const Foam::labelList&, Foam::labelList&) const
    in file meshRefinement/meshRefinementBaffles.C at line 1788
    Cell 990 at (0.0050625 0.0045625 0.0010625) is inside cellZone solid from locationInMesh (0.005 0.005 0.005) but already marked as being in zone air
This can happen if your surfaces are not (sufficiently) closed.
--> FOAM Warning : 
    From void Foam::meshRefinement::findCellZoneInsideWalk(const Foam::pointField&, const Foam::labelList&, const Foam::labelList&, Foam::labelList&) const
    in file meshRefinement/meshRefinementBaffles.C at line 1788
    Cell 1009 at (0.0045625 0.0050625 0.0010625) is inside cellZone solid from locationInMesh (0.005 0.005 0.005) but already marked as being in zone air
This can happen if your surfaces are not (sufficiently) closed.
--> FOAM Warning : 
    From void Foam::meshRefinement::findCellZoneInsideWalk(const Foam::pointField&, const Foam::labelList&, const Foam::labelList&, Foam::labelList&) const
    in file meshRefinement/meshRefinementBaffles.C at line 1788
    Cell 1010 at (0.0050625 0.0050625 0.0010625) is inside cellZone solid from locationInMesh (0.005 0.005 0.005) but already marked as being in zone air
This can happen if your surfaces are not (sufficiently) closed.
--> FOAM Warning : 
    From void Foam::meshRefinement::findCellZoneInsideWalk(const Foam::pointField&, const Foam::labelList&, const Foam::labelList&, Foam::labelList&) const
    in file meshRefinement/meshRefinementBaffles.C at line 1788
    Cell 1011 at (0.0055625 0.0050625 0.0010625) is inside cellZone solid from locationInMesh (0.005 0.005 0.005) but already marked as being in zone air
This can happen if your surfaces are not (sufficiently) closed.
--> FOAM Warning : 
    From void Foam::meshRefinement::findCellZoneInsideWalk(const Foam::pointField&, const Foam::labelList&, const Foam::labelList&, Foam::labelList&) const
    in file meshRefinement/meshRefinementBaffles.C at line 1788
    Cell 1030 at (0.0050625 0.0055625 0.0010625) is inside cellZone solid from locationInMesh (0.005 0.005 0.005) but already marked as being in zone air
This can happen if your surfaces are not (sufficiently) closed.
--> FOAM Warning : 
    From void Foam::meshRefinement::findCellZoneInsideWalk(const Foam::pointField&, const Foam::labelList&, const Foam::labelList&, Foam::labelList&) const
    in file meshRefinement/meshRefinementBaffles.C at line 1788
    Cell 1329 at (0.0045625 0.0030625 0.0015625) is inside cellZone solid from locationInMesh (0.005 0.005 0.005) but already marked as being in zone air
This can happen if your surfaces are not (sufficiently) closed.
--> FOAM Warning : 
    From void Foam::meshRefinement::findCellZoneInsideWalk(const Foam::pointField&, const Foam::labelList&, const Foam::labelList&, Foam::labelList&) const
    in file meshRefinement/meshRefinementBaffles.C at line 1788
    Cell 1330 at (0.0050625 0.0030625 0.0015625) is inside cellZone solid from locationInMesh (0.005 0.005 0.005) but already marked as being in zone air
This can happen if your surfaces are not (sufficiently) closed.
--> FOAM Warning : 
    From void Foam::meshRefinement::findCellZoneInsideWalk(const Foam::pointField&, const Foam::labelList&, const Foam::labelList&, Foam::labelList&) const
    in file meshRefinement/meshRefinementBaffles.C at line 1788
    Cell 1331 at (0.0055625 0.0030625 0.0015625) is inside cellZone solid from locationInMesh (0.005 0.005 0.005) but already marked as being in zone air
This can happen if your surfaces are not (sufficiently) closed.
--> FOAM Warning : 
    From void Foam::meshRefinement::findCellZoneInsideWalk(const Foam::pointField&, const Foam::labelList&, const Foam::labelList&, Foam::labelList&) const
    in file meshRefinement/meshRefinementBaffles.C at line 1788
    Cell 1347 at (0.0035625 0.0035625 0.0015625) is inside cellZone solid from locationInMesh (0.005 0.005 0.005) but already marked as being in zone air
This can happen if your surfaces are not (sufficiently) closed.
Walking from known cellZones; crossing a faceZone face changes cellZone

Edge intersection testing:
    Number of edges             : 364710
    Number of edges to retest   : 13980
    Number of intersected edges : 22704

Remove unreachable sections of mesh
-----------------------------------

Split mesh in = 0.6 s


After subsetting : cells:114918  faces:364710  points:134983
Cells per refinement level:
    0	4172
    1	19178
    2	91568

Merge free-standing baffles
---------------------------

freeStandingBaffles : detected 0 free-standing baffles out of 0

Detected free-standing baffles : 0
Merged free-standing baffles in = 0.1 s


dupNonManifoldPoints : Found : 0 non-manifold points (out of 134983)
Detected unsplittable baffles : 0

Merge refined boundary faces
----------------------------

Merging 0 sets of faces.

No faces merged ...

Merging all points on surface that
- are used by only two boundary faces and
- make an angle with a cosine of more than 0.707107.

No straight edges simplified and no points removed ...
Refined mesh : cells:114918  faces:364710  points:134983
Cells per refinement level:
    0	4172
    1	19178
    2	91568
Writing mesh to time constant
Wrote mesh in = 0.05 s.
Mesh refined in = 7.1 s.

Morphing phase
--------------

Converting zoned faces into baffles ...

FaceZone                      FaceType  nBaffles  
--------                      --------  --------  
sphere_surface                internal  19368     

Edge intersection testing:
    Number of edges             : 384078
    Number of edges to retest   : 102852
    Number of intersected edges : 42072
Created 19368 baffles in = 0.64 s


Duplicating 0 points on faceZones of type boundary
Snapping to features in 10 iterations ...
Constructing mesh displacer ...
Using mesh parameters 
{
    maxNonOrtho     65;
    maxBoundarySkewness 20;
    maxInternalSkewness 4;
    maxConcave      80;
    minVol          1e-13;
    minTetQuality   1e-15;
    minArea         -1;
    minTwist        0.02;
    minDeterminant  0.001;
    minFaceWeight   0.05;
    minVolRatio     0.01;
    minTriangleTwist -1;
    nSmoothScale    4;
    errorReduction  0.75;
    relaxed
    {
        maxNonOrtho     75;
    }
}


Checking initial mesh ...
Checking faces in error :
    non-orthogonality > 65  degrees                        : 0
    faces with face pyramid volume < 1e-13                 : 0
    faces with face-decomposition tet quality < 1e-15      : 0
    faces with concavity > 80  degrees                     : 0
    faces with skewness > 4   (internal) or 20  (boundary) : 0
    faces with interpolation weights (0..1)  < 0.05        : 0
    faces with volume ratio of neighbour cells < 0.01      : 0
    faces with face twist < 0.02                           : 0
    faces on cells with determinant < 0.001                : 0
Detected 0 illegal faces (concave, zero area or negative cell pyramid volume)
Checked initial mesh in = 0.9 s


Smoothing patch points ...
Smoothing iteration 0
Found 0 non-manifold point(s).

Scaling iteration 0
Moving mesh using displacement scaling : min:1 max:1
Checking faces in error :
    non-orthogonality > 65  degrees                        : 0
    faces with face pyramid volume < 1e-13                 : 0
    faces with face-decomposition tet quality < 1e-15      : 0
    faces with concavity > 80  degrees                     : 0
    faces with skewness > 4   (internal) or 20  (boundary) : 0
    faces with interpolation weights (0..1)  < 0.05        : 0
    faces with volume ratio of neighbour cells < 0.01      : 0
    faces with face twist < 0.02                           : 0
    faces on cells with determinant < 0.001                : 0
Successfully moved mesh

Smoothing iteration 1
Found 0 non-manifold point(s).

Scaling iteration 0
Moving mesh using displacement scaling : min:1 max:1
Checking faces in error :
    non-orthogonality > 65  degrees                        : 0
    faces with face pyramid volume < 1e-13                 : 0
    faces with face-decomposition tet quality < 1e-15      : 0
    faces with concavity > 80  degrees                     : 0
    faces with skewness > 4   (internal) or 20  (boundary) : 0
    faces with interpolation weights (0..1)  < 0.05        : 0
    faces with volume ratio of neighbour cells < 0.01      : 0
    faces with face twist < 0.02                           : 0
    faces on cells with determinant < 0.001                : 0
Successfully moved mesh

Smoothing iteration 2
Found 0 non-manifold point(s).

Scaling iteration 0
Moving mesh using displacement scaling : min:1 max:1
Checking faces in error :
    non-orthogonality > 65  degrees                        : 0
    faces with face pyramid volume < 1e-13                 : 0
    faces with face-decomposition tet quality < 1e-15      : 0
    faces with concavity > 80  degrees                     : 0
    faces with skewness > 4   (internal) or 20  (boundary) : 0
    faces with interpolation weights (0..1)  < 0.05        : 0
    faces with volume ratio of neighbour cells < 0.01      : 0
    faces with face twist < 0.02                           : 0
    faces on cells with determinant < 0.001                : 0
Successfully moved mesh

Patch points smoothed in = 2.16 s



Morph iteration 0
-----------------
Calculating patchDisplacement as distance to nearest surface point ...
    non-zone points : attract to nearest of all non-zone surfaces
    zone points     : attract to zone surface only

Wanted displacement : average:2.4805e-05 min:0 max:0.000301325
Calculated surface displacement in = 0.02 s


Detecting near surfaces ...
Overriding nearest with intersection of close gaps at 0 out of 22804 points.
Overriding displacement on features :
   implicit features    : true
   explicit features    : false
   multi-patch features : false

Attraction:
    linear   : max:(-0.000301325 5.42101e-20 5.96311e-19) avg:(4.56114e-07 4.22347e-07 3.8858e-07)
    feature  : max:(-0.000301325 -0.000301325 -0.000301325) avg:(-8.01636e-09 -8.09158e-09 -8.19101e-09)
Feature analysis : total master points :22804 of which attracted to :
    feature point   : 8
    feature edge    : 228
    nearest surface : 22568
    rest            : 0

--> FOAM Warning : Displacement (-8.26565e-08 -6.09157e-08 3.72786e-08) at mesh point 1080 coord (0.00453268 0.00453268 0.00103539) points through the surrounding patch faces
Smoothing displacement ...
Iteration 0
Iteration 10
Iteration 20
Iteration 30
Iteration 40
Iteration 50
Iteration 60
Iteration 70
Iteration 80
Iteration 90
Displacement smoothed in = 1.03 s


Moving mesh ...

Iteration 0
Moving mesh using displacement scaling : min:1 max:1
Checking faces in error :
    non-orthogonality > 65  degrees                        : 0
    faces with face pyramid volume < 1e-13                 : 0
    faces with face-decomposition tet quality < 1e-15      : 0
    faces with concavity > 80  degrees                     : 0
    faces with skewness > 4   (internal) or 20  (boundary) : 0
    faces with interpolation weights (0..1)  < 0.05        : 0
    faces with volume ratio of neighbour cells < 0.01      : 0
    faces with face twist < 0.02                           : 0
    faces on cells with determinant < 0.001                : 0
Successfully moved mesh
Moved mesh in = 0.53 s



Morph iteration 1
-----------------
Calculating patchDisplacement as distance to nearest surface point ...
    non-zone points : attract to nearest of all non-zone surfaces
    zone points     : attract to zone surface only

Wanted displacement : average:2.34806e-05 min:2.51113e-09 max:0.000271193
Calculated surface displacement in = 0.01 s


Detecting near surfaces ...
Overriding nearest with intersection of close gaps at 0 out of 22804 points.
Overriding displacement on features :
   implicit features    : true
   explicit features    : false
   multi-patch features : false

Attraction:
    linear   : max:(-0.000271193 -5.42101e-20 8.13152e-19) avg:(3.63553e-07 3.35677e-07 3.08033e-07)
    feature  : max:(-0.000271193 -0.000298312 -0.000298312) avg:(-9.56333e-08 -9.02965e-08 -8.44844e-08)
Feature analysis : total master points :22804 of which attracted to :
    feature point   : 8
    feature edge    : 228
    nearest surface : 22568
    rest            : 0

--> FOAM Warning : Displacement (-3.47256e-07 2.75941e-08 5.86081e-07) at mesh point 1080 coord (0.0045326 0.00453262 0.00103542) points through the surrounding patch faces
Smoothing displacement ...
Iteration 0
Iteration 10
Iteration 20
Iteration 30
Iteration 40
Iteration 50
Iteration 60
Iteration 70
Iteration 80
Iteration 90
Displacement smoothed in = 0.82 s


Moving mesh ...

Iteration 0
Moving mesh using displacement scaling : min:1 max:1
Checking faces in error :
    non-orthogonality > 65  degrees                        : 0
    faces with face pyramid volume < 1e-13                 : 0
    faces with face-decomposition tet quality < 1e-15      : 0
    faces with concavity > 80  degrees                     : 0
    faces with skewness > 4   (internal) or 20  (boundary) : 0
    faces with interpolation weights (0..1)  < 0.05        : 0
[...]
    faces with skewness > 4   (internal) or 20  (boundary) : 0
    faces with interpolation weights (0..1)  < 0.05        : 0
    faces with volume ratio of neighbour cells < 0.01      : 0
    faces with face twist < 0.02                           : 0
    faces on cells with determinant < 0.001                : 0
Successfully moved mesh
Moved mesh in = 6.69 s


Edge intersection testing:
    Number of edges             : 364710
    Number of edges to retest   : 19368
    Number of intersected edges : 22704
Repatching faces according to nearest surface ...
Repatched 0 faces in = 0.39 s


Edge intersection testing:
    Number of edges             : 364710
    Number of edges to retest   : 13980
    Number of intersected edges : 22704
Merging 0 sets of faces.

No faces merged ...

Merging all points on surface that
- are used by only two boundary faces and
- make an angle with a cosine of more than 0.965926.

No straight edges simplified and no points removed ...
Snapped mesh : cells:114918  faces:364710  points:134983
Cells per refinement level:
    0	4172
    1	19178
    2	91568
Writing mesh to time constant
Wrote mesh in = 0.05 s.
Mesh snapped in = 56.11 s.
Layer specification as
- first layer thickness ('firstLayerThickness')
- expansion ratio ('expansionRatio')

Shrinking and layer addition phase
----------------------------------

Using mesh parameters 
{
    maxNonOrtho     65;
    maxBoundarySkewness 20;
    maxInternalSkewness 4;
    maxConcave      80;
    minVol          1e-13;
    minTetQuality   1e-15;
    minArea         -1;
    minTwist        0.02;
    minDeterminant  0.001;
    minFaceWeight   0.05;
    minVolRatio     0.01;
    minTriangleTwist -1;
    nSmoothScale    4;
    errorReduction  0.75;
    relaxed
    {
        maxNonOrtho     75;
    }
}



Merging all faces of a cell
---------------------------
    - which are on the same patch
    - which make an angle < 100 degrees (cos:-0.173648)
    - as long as the resulting face doesn't become concave by more than 90 degrees
      (0=straight, 180=fully concave)

Merging 10 sets of faces.

Edge intersection testing:
    Number of edges             : 364700
    Number of edges to retest   : 46
    Number of intersected edges : 22684

Undo iteration 0
----------------
Checking faces in error :
    non-orthogonality > 65  degrees                        : 0
    faces with face pyramid volume < 1e-13                 : 0
    faces with face-decomposition tet quality < 1e-15      : 0
    faces with concavity > 80  degrees                     : 9
    faces with skewness > 4   (internal) or 20  (boundary) : 0
    faces with interpolation weights (0..1)  < 0.05        : 0
    faces with volume ratio of neighbour cells < 0.01      : 0
    faces with face twist < 0.02                           : 0
    faces on cells with determinant < 0.001                : 0
Masters that need to be restored:9
Edge intersection testing:
    Number of edges             : 364709
    Number of edges to retest   : 52
    Number of intersected edges : 22702


Undo iteration 1
----------------
Checking faces in error :
    non-orthogonality > 65  degrees                        : 0
    faces with face pyramid volume < 1e-13                 : 0
    faces with face-decomposition tet quality < 1e-15      : 0
    faces with concavity > 80  degrees                     : 0
    faces with skewness > 4   (internal) or 20  (boundary) : 0
    faces with interpolation weights (0..1)  < 0.05        : 0
    faces with volume ratio of neighbour cells < 0.01      : 0
    faces with face twist < 0.02                           : 0
    faces on cells with determinant < 0.001                : 0

Merging all points on surface that
- are used by only two boundary faces and
- make an angle with a cosine of more than -0.173648.

No straight edges simplified and no points removed ...

Checking mesh manifoldness ...

Checking initial mesh ...
Checking faces in error :
    non-orthogonality > 65  degrees                        : 0
    faces with face pyramid volume < 1e-13                 : 0
    faces with face-decomposition tet quality < 1e-15      : 0
    faces with concavity > 80  degrees                     : 0
    faces with skewness > 4   (internal) or 20  (boundary) : 0
    faces with interpolation weights (0..1)  < 0.05        : 0
    faces with volume ratio of neighbour cells < 0.01      : 0
    faces with face twist < 0.02                           : 0
    faces on cells with determinant < 0.001                : 0
Detected 0 illegal faces (concave, zero area or negative cell pyramid volume)
Converting zoned faces into baffles ...

FaceZone                      FaceType  nBaffles  
--------                      --------  --------  
sphere_surface                internal  19368     

Edge intersection testing:
    Number of edges             : 384077
    Number of edges to retest   : 102852
    Number of intersected edges : 42070
Created 19368 baffles in = 2.6 s


Duplicating 0 points on faceZones of type boundary
On faceZone sphere_surface adding layers to master patch sphere only. Freezing points on slave patch sphere_slave

Handling points with inconsistent layer specification ...
dupNonManifoldPoints : Found : 19370 non-manifold points (out of 134983)
Edge intersection testing:
    Number of edges             : 384077
    Number of edges to retest   : 0
    Number of intersected edges : 42070

Handling points with inconsistent layer specification ...

Handling non-manifold points ...

Checking patch manifoldness ...
Outside of local patch is multiply connected across edges or points at 0 points.
Set displacement to zero for all 0 non-manifold points

Handling feature edges (angle < 100) ...
Set displacement to zero for points on 0 feature edges

Handling cells with warped patch faces ...
Set displacement to zero on 0 warped faces since layer would be > 0.5 of the size of the bounding box.

patch  faces    layers avg thickness[m]
                       near-wall overall
-----  -----    ------ --------- -------
sphere 19368    2      2.5e-05   5.5e-05 


Outer iteration : 0
-------------------

Adding in total 0 inter-processor patches to handle extrusion of non-manifold processor boundaries.
Selecting externalDisplacementMeshMover displacementMedialAxis
displacementMedialAxis : Calculating distance to Medial Axis ...
fieldSmoother : Smoothing normals ...
    Iteration 0   residual 0.0604537
displacementMedialAxis : Limited walk to 10 steps. Not visited 90307 out of 154353 points
displacementMedialAxis : Inserting all points on patch sphere_slave
displacementMedialAxis : Inserting points on patch inlet if angle to nearest layer patch > 30 degrees.
displacementMedialAxis : Inserting points on patch outlet if angle to nearest layer patch > 30 degrees.
displacementMedialAxis : Inserting points on patch walls if angle to nearest layer patch > 30 degrees.
fieldSmoother : Smoothing normals in interior ...
    Iteration 0   residual 0.017858

Layer addition iteration 0
--------------------------

Determining displacement for added points according to pointNormal ...
Detected 0 points with point normal pointing through faces.
Reset displacement at 0 points to average of surrounding points.

displacementMedialAxis : Smoothing using Medial Axis ...
displacementMedialAxis : Reducing layer thickness at 0 nodes where thickness to medial axis distance is large 
displacementMedialAxis : Removing isolated regions ...
- if partially extruded faces make angle < 50
- if exclusively surrounded by non-extruded faces
displacementMedialAxis : Number of isolated points extrusion stopped : 0
fieldSmoother : Smoothing field ...
    Iteration 0   residual 1.159e-21
displacementMedialAxis : Moving mesh ...
displacementMedialAxis : Iteration 0
Moving mesh using displacement scaling : min:1 max:1
Checking faces in error :
    non-orthogonality > 65  degrees                        : 0
    faces with face pyramid volume < 1e-13                 : 3123
    faces with face-decomposition tet quality < 1e-15      : 0
    faces with concavity > 80  degrees                     : 0
    faces with skewness > 4   (internal) or 20  (boundary) : 0
    faces with interpolation weights (0..1)  < 0.05        : 0
    faces with volume ratio of neighbour cells < 0.01      : 0
    faces with face twist < 0.02                           : 0
    faces on cells with determinant < 0.001                : 0
displacementMedialAxis : Iteration 1
Moving mesh using displacement scaling : min:0.75 max:1
Checking faces in error :
    non-orthogonality > 65  degrees                        : 0
    faces with face pyramid volume < 1e-13                 : 667
    faces with face-decomposition tet quality < 1e-15      : 0
    faces with concavity > 80  degrees                     : 0
    faces with skewness > 4   (internal) or 20  (boundary) : 0
    faces with interpolation weights (0..1)  < 0.05        : 0
    faces with volume ratio of neighbour cells < 0.01      : 0
    faces with face twist < 0.02                           : 0
    faces on cells with determinant < 0.001                : 0
displacementMedialAxis : Iteration 2
Moving mesh using displacement scaling : min:0.5625 max:1
Checking faces in error :
    non-orthogonality > 65  degrees                        : 0
    faces with face pyramid volume < 1e-13                 : 263
    faces with face-decomposition tet quality < 1e-15      : 0
    faces with concavity > 80  degrees                     : 0
    faces with skewness > 4   (internal) or 20  (boundary) : 0
    faces with interpolation weights (0..1)  < 0.05        : 0
    faces with volume ratio of neighbour cells < 0.01      : 0
    faces with face twist < 0.02                           : 0
    faces on cells with determinant < 0.001                : 0
displacementMedialAxis : Iteration 3
Moving mesh using displacement scaling : min:0.421875 max:1
Checking faces in error :
    non-orthogonality > 65  degrees                        : 0
    faces with face pyramid volume < 1e-13                 : 90
    faces with face-decomposition tet quality < 1e-15      : 0
    faces with concavity > 80  degrees                     : 0
    faces with skewness > 4   (internal) or 20  (boundary) : 0
    faces with interpolation weights (0..1)  < 0.05        : 0
    faces with volume ratio of neighbour cells < 0.01      : 0
    faces with face twist < 0.02                           : 0
    faces on cells with determinant < 0.001                : 0
displacementMedialAxis : Iteration 4
Moving mesh using displacement scaling : min:0.421875 max:1
Checking faces in error :
    non-orthogonality > 65  degrees                        : 0
    faces with face pyramid volume < 1e-13                 : 38
    faces with face-decomposition tet quality < 1e-15      : 0
    faces with concavity > 80  degrees                     : 0
    faces with skewness > 4   (internal) or 20  (boundary) : 0
    faces with interpolation weights (0..1)  < 0.05        : 0
    faces with volume ratio of neighbour cells < 0.01      : 0
    faces with face twist < 0.02                           : 0
    faces on cells with determinant < 0.001                : 0
displacementMedialAxis : Iteration 5
displacementMedialAxis : Displacement scaling for error reduction set to 0.
Moving mesh using displacement scaling : min:0.421875 max:1
Checking faces in error :
    non-orthogonality > 65  degrees                        : 0
    faces with face pyramid volume < 1e-13                 : 9
    faces with face-decomposition tet quality < 1e-15      : 0
    faces with concavity > 80  degrees                     : 0
    faces with skewness > 4   (internal) or 20  (boundary) : 0
    faces with interpolation weights (0..1)  < 0.05        : 0
    faces with volume ratio of neighbour cells < 0.01      : 0
    faces with face twist < 0.02                           : 0
    faces on cells with determinant < 0.001                : 0
displacementMedialAxis : Iteration 6
Moving mesh using displacement scaling : min:0 max:1
Checking faces in error :
    non-orthogonality > 65  degrees                        : 0
    faces with face pyramid volume < 1e-13                 : 6
    faces with face-decomposition tet quality < 1e-15      : 0
    faces with concavity > 80  degrees                     : 0
    faces with skewness > 4   (internal) or 20  (boundary) : 0
    faces with interpolation weights (0..1)  < 0.05        : 0
    faces with volume ratio of neighbour cells < 0.01      : 0
    faces with face twist < 0.02                           : 0
    faces on cells with determinant < 0.001                : 0
displacementMedialAxis : Iteration 7
Moving mesh using displacement scaling : min:0 max:1
Checking faces in error :
    non-orthogonality > 65  degrees                        : 0
    faces with face pyramid volume < 1e-13                 : 7
    faces with face-decomposition tet quality < 1e-15      : 0
    faces with concavity > 80  degrees                     : 0
    faces with skewness > 4   (internal) or 20  (boundary) : 0
    faces with interpolation weights (0..1)  < 0.05        : 0
    faces with volume ratio of neighbour cells < 0.01      : 0
    faces with face twist < 0.02                           : 0
    faces on cells with determinant < 0.001                : 0
displacementMedialAxis : Iteration 8
Moving mesh using displacement scaling : min:0 max:1
Checking faces in error :
    non-orthogonality > 65  degrees                        : 0
    faces with face pyramid volume < 1e-13                 : 10
    faces with face-decomposition tet quality < 1e-15      : 0
    faces with concavity > 80  degrees                     : 0
    faces with skewness > 4   (internal) or 20  (boundary) : 0
    faces with interpolation weights (0..1)  < 0.05        : 0
    faces with volume ratio of neighbour cells < 0.01      : 0
    faces with face twist < 0.02                           : 0
    faces on cells with determinant < 0.001                : 0
displacementMedialAxis : Iteration 9
Moving mesh using displacement scaling : min:0 max:1
Checking faces in error :
    non-orthogonality > 65  degrees                        : 0
    faces with face pyramid volume < 1e-13                 : 5
    faces with face-decomposition tet quality < 1e-15      : 0
    faces with concavity > 80  degrees                     : 0
    faces with skewness > 4   (internal) or 20  (boundary) : 0
    faces with interpolation weights (0..1)  < 0.05        : 0
    faces with volume ratio of neighbour cells < 0.01      : 0
    faces with face twist < 0.02                           : 0
    faces on cells with determinant < 0.001                : 0
displacementMedialAxis : Finished moving mesh ...
truncateDisplacement : Unextruded 2 faces due to non-consecutive vertices being extruded.
truncateDisplacement : Unextruded 0 faces due to stringed edges with inconsistent extrusion.
truncateDisplacement : Unextruded 0 faces due to non-consecutive vertices being extruded.
truncateDisplacement : Unextruded 0 faces due to stringed edges with inconsistent extrusion.

Setting up information for layer truncation ...
Detected 19368 baffles across faceZones of type internal


Checking mesh with layer ...
Checking faces in error :
    non-orthogonality > 65  degrees                        : 0
    faces with face pyramid volume < 1e-13                 : 143148
    faces with face-decomposition tet quality < 1e-15      : 0
    faces with concavity > 80  degrees                     : 0
    faces with skewness > 4   (internal) or 20  (boundary) : 0
    faces with interpolation weights (0..1)  < 0.05        : 0
    faces with volume ratio of neighbour cells < 0.01      : 0
    faces with face twist < 0.02                           : 0
    faces on cells with determinant < 0.001                : 0
Detected 143148 illegal faces (concave, zero area or negative cell pyramid volume)
Extruding 0 out of 19368 faces (0%). Removed extrusion at 10431 faces.
Added 38247 out of 38736 cells (98.7376%).


Layer addition iteration 1
--------------------------

Determining displacement for added points according to pointNormal ...
Detected 0 points with point normal pointing through faces.
Reset displacement at 0 points to average of surrounding points.

displacementMedialAxis : Smoothing using Medial Axis ...
displacementMedialAxis : Reducing layer thickness at 0 nodes where thickness to medial axis distance is large 
displacementMedialAxis : Removing isolated regions ...
- if partially extruded faces make angle < 50
- if exclusively surrounded by non-extruded faces
displacementMedialAxis : Number of isolated points extrusion stopped : 0
fieldSmoother : Smoothing field ...
    Iteration 0   residual 0
displacementMedialAxis : Moving mesh ...
displacementMedialAxis : Iteration 0
Moving mesh using displacement scaling : min:1 max:1
Checking faces in error :
    non-orthogonality > 65  degrees                        : 0
    faces with face pyramid volume < 1e-13                 : 0
    faces with face-decomposition tet quality < 1e-15      : 0
    faces with concavity > 80  degrees                     : 0
    faces with skewness > 4   (internal) or 20  (boundary) : 0
    faces with interpolation weights (0..1)  < 0.05        : 0
    faces with volume ratio of neighbour cells < 0.01      : 0
    faces with face twist < 0.02                           : 0
    faces on cells with determinant < 0.001                : 0
displacementMedialAxis : Successfully moved mesh
displacementMedialAxis : Finished moving mesh ...
truncateDisplacement : Unextruded 0 faces due to non-consecutive vertices being extruded.
truncateDisplacement : Unextruded 0 faces due to stringed edges with inconsistent extrusion.

Setting up information for layer truncation ...
Detected 19368 baffles across faceZones of type internal


Checking mesh with layer ...
Checking faces in error :
    non-orthogonality > 65  degrees                        : 0
    faces with face pyramid volume < 1e-13                 : 0
    faces with face-decomposition tet quality < 1e-15      : 0
    faces with concavity > 80  degrees                     : 0
    faces with skewness > 4   (internal) or 20  (boundary) : 0
    faces with interpolation weights (0..1)  < 0.05        : 0
    faces with volume ratio of neighbour cells < 0.01      : 0
    faces with face twist < 0.02                           : 0
    faces on cells with determinant < 0.001                : 0
Detected 0 illegal faces (concave, zero area or negative cell pyramid volume)
Extruding 0 out of 19368 faces (0%). Removed extrusion at 0 faces.
Added 0 out of 38736 cells (0%).
Merging 38740 duplicated points ...
Edge intersection testing:
    Number of edges             : 384077
    Number of edges to retest   : 0
    Number of intersected edges : 42070
Merged points in = 6.98 s


Converting baffles back into zoned faces ...
Edge intersection testing:
    Number of edges             : 364709
    Number of edges to retest   : 19368
    Number of intersected edges : 22702
Converted baffles in = 0.39 s


Layer mesh : cells:114918  faces:364709  points:134983
Cells per refinement level:
    0	4172
    1	19178
    2	91568
Writing mesh to time constant
Wrote mesh in = 0.05 s.
Layers added in = 9.56 s.
Checking final mesh ...
Checking faces in error :
    non-orthogonality > 65  degrees                        : 0
    faces with face pyramid volume < 1e-13                 : 0
    faces with face-decomposition tet quality < 1e-15      : 0
    faces with concavity > 80  degrees                     : 0
    faces with skewness > 4   (internal) or 20  (boundary) : 0
    faces with interpolation weights (0..1)  < 0.05        : 0
    faces with volume ratio of neighbour cells < 0.01      : 0
    faces with face twist < 0.02                           : 0
    faces on cells with determinant < 0.001                : 0
Finished meshing without any errors
Finished meshing in = 73.25 s.
End

