/*---------------------------------------------------------------------------*\
| =========                 |                                                 |
| \\      /  F ield         | OpenFOAM: The Open Source CFD Toolbox           |
|  \\    /   O peration     | Version:  2506                                  |
|   \\  /    A nd           | Website:  www.openfoam.com                      |
|    \\/     M anipulation  |                                                 |
\*---------------------------------------------------------------------------*/
Build  : _615aae61-20250627 OPENFOAM=2506 version=2506
Arch   : "LSB;label=32;scalar=64"
Exec   : chtMultiRegionFoam
Date   : Jan 10 2026
Time   : 22:33:30
Host   : tanguy-VMware-Virtual-Platform
PID    : 22839
I/O    : uncollated
Case   : /home/tanguy/OpenFOAM/tanguy-v2506/run/simpleBoule
nProcs : 1
trapFpe: Floating point exception trapping enabled (FOAM_SIGFPE).
fileModificationChecking : Monitoring run-time modified files using timeStampMaster (fileModificationSkew 5, maxFileModificationPolls 20)
allowSystemOperations : Allowing user-supplied system call operations

// * * * * * * * * * * * * * * * * * * * * * * * * * * * * * * * * * * * * * //
Create time

Create fluid mesh for region air for time = 0

Create solid mesh for region solid for time = 0

*** Reading fluid mesh thermophysical properties for region air

    Adding to thermoFluid

Selecting thermodynamics package 
{
    type            heRhoThermo;
    mixture         pureMixture;
    transport       const;
    thermo          hConst;
    equationOfState perfectGas;
    specie          specie;
    energy          sensibleEnthalpy;
}

--> FOAM Warning : 
    From Foam::compressible::turbulentTemperatureCoupledBaffleMixedFvPatchScalarField::turbulentTemperatureCoupledBaffleMixedFvPatchScalarField(const Foam::fvPatch&, const Foam::DimensionedField<double, Foam::volMesh>&, const Foam::dictionary&)
    in file derivedFvPatchFields/turbulentTemperatureCoupledBaffleMixed/turbulentTemperatureCoupledBaffleMixedFvPatchScalarField.C at line 119
    This BC has been superseded by compressible::turbulentTemperatureRadCoupledMixed which has more functionalities and it can handle the assemble coupled option for energy. 
    Adding to rhoFluid

    Adding to UFluid

    Adding to phiFluid

    Adding to hRefFluid

    Adding to ghFluid

    Adding to ghfFluid

    Adding to turbulenceFluid

Selecting turbulence model type laminar
Selecting laminar stress model Stokes
    Adding to reactionFluid

Combustion model not active: combustionProperties not found
Selecting combustion model none
    Adding to radiationFluid

Radiation model not active: radiationProperties not found
Selecting radiationModel none
    Adding to KFluid

    Adding to dpdtFluid

    Adding to fieldsFluid

    Adding to QdotFluid

    Adding MRF

No MRF models present

    Adding fvOptions

*** Reading solid mesh thermophysical properties for region solid

    Adding to thermos

Selecting thermodynamics package 
{
    type            heSolidThermo;
    mixture         pureMixture;
    transport       constIso;
    thermo          hConst;
    equationOfState rhoConst;
    specie          specie;
    energy          sensibleEnthalpy;
}

--> FOAM Warning : 
    From Foam::compressible::turbulentTemperatureCoupledBaffleMixedFvPatchScalarField::turbulentTemperatureCoupledBaffleMixedFvPatchScalarField(const Foam::fvPatch&, const Foam::DimensionedField<double, Foam::volMesh>&, const Foam::dictionary&)
    in file derivedFvPatchFields/turbulentTemperatureCoupledBaffleMixed/turbulentTemperatureCoupledBaffleMixedFvPatchScalarField.C at line 119
    This BC has been superseded by compressible::turbulentTemperatureRadCoupledMixed which has more functionalities and it can handle the assemble coupled option for energy. 
    Adding to radiations

Radiation model not active: radiationProperties not found
Selecting radiationModel none
    Adding fvOptions

Region: air Courant Number mean: 0 max: 0
Region: solid Diffusion Number mean: 530.845 max: 11358.4
--> FOAM Warning : 
    From virtual void Foam::probes::findElements(const Foam::fvMesh&)
    in file probes/probes.C at line 227
    Did not find location (0.005 0.005 0.009) in any cell. Skipping location.
--> FOAM Warning : 
    From virtual void Foam::probes::findElements(const Foam::fvMesh&)
    in file probes/probes.C at line 227
    Did not find location (0.005 0.005 0.001) in any cell. Skipping location.
wallHeatFlux HeatFlux_air:
    processing (1) wall patches:
        air_to_solid

wallHeatFlux HeatFlux_solid:
    processing (1) wall patches:
        solid_to_air

surfaceFieldValue T_Average_inlet:
    operation     = areaAverage


surfaceFieldValue T_Average_outlet:
    operation     = areaAverage


deltaT = 0.000909091
Region: air Courant Number mean: 0 max: 0
Region: solid Diffusion Number mean: 4.82586 max: 103.258
deltaT = 0.000909091
Time = 0.000909091

diagonal:  Solving for rho, Initial residual = 0, Final residual = 0, No Iterations 0
DILUPBiCGStab:  Solving for Ux, Initial residual = 1, Final residual = 1.06945e-08, No Iterations 5
DILUPBiCGStab:  Solving for Uy, Initial residual = 1, Final residual = 3.29297e-08, No Iterations 5
DILUPBiCGStab:  Solving for Uz, Initial residual = 1, Final residual = 6.45206e-08, No Iterations 5
DILUPBiCGStab:  Solving for h, Initial residual = 1, Final residual = 5.49866e-08, No Iterations 6
Min/max T:273.15 300

Solving for fluid region air
DICPCG:  Solving for p_rgh, Initial residual = 0.713821, Final residual = 0.00622927, No Iterations 45
DICPCG:  Solving for p_rgh, Initial residual = 0.0232417, Final residual = 0.000195634, No Iterations 28
diagonal:  Solving for rho, Initial residual = 0, Final residual = 0, No Iterations 0
time step continuity errors (air): sum local = 4.26624e-05, global = 2.68083e-06, cumulative = 2.68083e-06
DICPCG:  Solving for p_rgh, Initial residual = 0.0270314, Final residual = 0.000261531, No Iterations 46
DICPCG:  Solving for p_rgh, Initial residual = 0.015778, Final residual = 8.11635e-08, No Iterations 66
diagonal:  Solving for rho, Initial residual = 0, Final residual = 0, No Iterations 0
time step continuity errors (air): sum local = 1.0774e-08, global = 2.68801e-10, cumulative = 2.6811e-06

Solving for solid region solid
DICPCG:  Solving for h, Initial residual = 1, Final residual = 7.1609e-07, No Iterations 20
Min/max T:283.15 283.154
ExecutionTime = 1.96 s  ClockTime = 2 s

Region: air Courant Number mean: 0.0556035 max: 0.210389
Region: solid Diffusion Number mean: 4.82586 max: 103.258
deltaT = 0.000909091
Time = 0.00181818

diagonal:  Solving for rho, Initial residual = 0, Final residual = 0, No Iterations 0
DILUPBiCGStab:  Solving for Ux, Initial residual = 0.451624, Final residual = 4.57047e-08, No Iterations 5
DILUPBiCGStab:  Solving for Uy, Initial residual = 0.366107, Final residual = 2.758e-08, No Iterations 5
DILUPBiCGStab:  Solving for Uz, Initial residual = 0.314497, Final residual = 2.29801e-08, No Iterations 5
DILUPBiCGStab:  Solving for h, Initial residual = 0.102715, Final residual = 5.11911e-08, No Iterations 5
Min/max T:273.15 300

Solving for fluid region air
DICPCG:  Solving for p_rgh, Initial residual = 0.0487684, Final residual = 0.00044187, No Iterations 45
DICPCG:  Solving for p_rgh, Initial residual = 0.0366794, Final residual = 0.000316507, No Iterations 24
diagonal:  Solving for rho, Initial residual = 0, Final residual = 0, No Iterations 0
time step continuity errors (air): sum local = 4.71607e-05, global = -4.6896e-06, cumulative = -2.0085e-06
DICPCG:  Solving for p_rgh, Initial residual = 0.0303794, Final residual = 0.000272001, No Iterations 44
DICPCG:  Solving for p_rgh, Initial residual = 0.0509461, Final residual = 8.66854e-08, No Iterations 68
diagonal:  Solving for rho, Initial residual = 0, Final residual = 0, No Iterations 0
time step continuity errors (air): sum local = 4.68078e-09, global = -3.91513e-11, cumulative = -2.00854e-06

Solving for solid region solid
DICPCG:  Solving for h, Initial residual = 0.229588, Final residual = 8.71932e-07, No Iterations 16
Min/max T:283.15 283.156
ExecutionTime = 2.63 s  ClockTime = 3 s

Region: air Courant Number mean: 0.0411515 max: 0.245517
Region: solid Diffusion Number mean: 4.82586 max: 103.258
deltaT = 0.000909091
Time = 0.00272727

diagonal:  Solving for rho, Initial residual = 0, Final residual = 0, No Iterations 0
DILUPBiCGStab:  Solving for Ux, Initial residual = 0.469336, Final residual = 6.01924e-08, No Iterations 5
DILUPBiCGStab:  Solving for Uy, Initial residual = 0.702986, Final residual = 8.1574e-08, No Iterations 5
DILUPBiCGStab:  Solving for Uz, Initial residual = 0.40952, Final residual = 4.62799e-08, No Iterations 5
DILUPBiCGStab:  Solving for h, Initial residual = 0.0560273, Final residual = 6.59831e-08, No Iterations 5
Min/max T:273.15 300

Solving for fluid region air
DICPCG:  Solving for p_rgh, Initial residual = 0.0667821, Final residual = 0.000627389, No Iterations 43
DICPCG:  Solving for p_rgh, Initial residual = 0.0604776, Final residual = 0.000601517, No Iterations 27
diagonal:  Solving for rho, Initial residual = 0, Final residual = 0, No Iterations 0
time step continuity errors (air): sum local = 1.66576e-05, global = 5.63507e-07, cumulative = -1.44503e-06
DICPCG:  Solving for p_rgh, Initial residual = 0.0543642, Final residual = 0.000529561, No Iterations 38
DICPCG:  Solving for p_rgh, Initial residual = 0.16999, Final residual = 7.09784e-08, No Iterations 81
diagonal:  Solving for rho, Initial residual = 0, Final residual = 0, No Iterations 0
time step continuity errors (air): sum local = 7.72129e-10, global = -3.28358e-12, cumulative = -1.44504e-06

Solving for solid region solid
DICPCG:  Solving for h, Initial residual = 0.192845, Final residual = 6.21005e-07, No Iterations 16
Min/max T:283.15 283.156
ExecutionTime = 3.33 s  ClockTime = 3 s

Region: air Courant Number mean: 0.0295236 max: 0.134946
Region: solid Diffusion Number mean: 4.82586 max: 103.258
deltaT = 0.000909091
Time = 0.00363636

diagonal:  Solving for rho, Initial residual = 0, Final residual = 0, No Iterations 0
DILUPBiCGStab:  Solving for Ux, Initial residual = 0.106627, Final residual = 4.16697e-08, No Iterations 4
DILUPBiCGStab:  Solving for Uy, Initial residual = 0.111364, Final residual = 7.92996e-08, No Iterations 4
DILUPBiCGStab:  Solving for Uz, Initial residual = 0.0963126, Final residual = 6.20052e-08, No Iterations 4
DILUPBiCGStab:  Solving for h, Initial residual = 0.0396976, Final residual = 3.57788e-08, No Iterations 5
Min/max T:273.15 300

Solving for fluid region air
DICPCG:  Solving for p_rgh, Initial residual = 0.242001, Final residual = 0.00176384, No Iterations 44
DICPCG:  Solving for p_rgh, Initial residual = 0.0289703, Final residual = 0.000270329, No Iterations 31
diagonal:  Solving for rho, Initial residual = 0, Final residual = 0, No Iterations 0
time step continuity errors (air): sum local = 2.16702e-06, global = 1.18912e-08, cumulative = -1.43315e-06
DICPCG:  Solving for p_rgh, Initial residual = 0.045095, Final residual = 0.000342231, No Iterations 45
DICPCG:  Solving for p_rgh, Initial residual = 0.0176903, Final residual = 7.21754e-08, No Iterations 67
diagonal:  Solving for rho, Initial residual = 0, Final residual = 0, No Iterations 0
time step continuity errors (air): sum local = 7.90018e-10, global = 7.5126e-13, cumulative = -1.43315e-06

Solving for solid region solid
DICPCG:  Solving for h, Initial residual = 0.134599, Final residual = 8.8885e-07, No Iterations 15
Min/max T:283.15 283.156
ExecutionTime = 4.04 s  ClockTime = 4 s

Region: air Courant Number mean: 0.0249957 max: 0.123649
Region: solid Diffusion Number mean: 4.82586 max: 103.258
deltaT = 0.000909091
Time = 0.00454545

diagonal:  Solving for rho, Initial residual = 0, Final residual = 0, No Iterations 0
DILUPBiCGStab:  Solving for Ux, Initial residual = 0.138727, Final residual = 5.78952e-08, No Iterations 4
DILUPBiCGStab:  Solving for Uy, Initial residual = 0.118312, Final residual = 6.22681e-08, No Iterations 4
DILUPBiCGStab:  Solving for Uz, Initial residual = 0.100078, Final residual = 5.35842e-08, No Iterations 4
DILUPBiCGStab:  Solving for h, Initial residual = 0.0315895, Final residual = 9.24007e-08, No Iterations 4
Min/max T:273.15 300

Solving for fluid region air
DICPCG:  Solving for p_rgh, Initial residual = 0.0906434, Final residual = 0.000685976, No Iterations 35
DICPCG:  Solving for p_rgh, Initial residual = 0.0415565, Final residual = 0.000370663, No Iterations 33
diagonal:  Solving for rho, Initial residual = 0, Final residual = 0, No Iterations 0
time step continuity errors (air): sum local = 1.21873e-06, global = -2.97773e-08, cumulative = -1.46292e-06
DICPCG:  Solving for p_rgh, Initial residual = 0.0607421, Final residual = 0.000506946, No Iterations 36
DICPCG:  Solving for p_rgh, Initial residual = 0.0219289, Final residual = 8.36817e-08, No Iterations 66
diagonal:  Solving for rho, Initial residual = 0, Final residual = 0, No Iterations 0
time step continuity errors (air): sum local = 6.87042e-10, global = -6.44864e-12, cumulative = -1.46293e-06

Solving for solid region solid
DICPCG:  Solving for h, Initial residual = 0.0745549, Final residual = 5.26791e-07, No Iterations 15
Min/max T:283.15 283.155
ExecutionTime = 4.82 s  ClockTime = 5 s

Region: air Courant Number mean: 0.0220022 max: 0.111586
Region: solid Diffusion Number mean: 4.82586 max: 103.258
deltaT = 0.000909091
Time = 0.00545455

diagonal:  Solving for rho, Initial residual = 0, Final residual = 0, No Iterations 0
DILUPBiCGStab:  Solving for Ux, Initial residual = 0.0838607, Final residual = 3.20958e-08, No Iterations 4
DILUPBiCGStab:  Solving for Uy, Initial residual = 0.0691161, Final residual = 3.44056e-08, No Iterations 4
DILUPBiCGStab:  Solving for Uz, Initial residual = 0.0744552, Final residual = 4.01544e-08, No Iterations 4
DILUPBiCGStab:  Solving for h, Initial residual = 0.0267011, Final residual = 7.35913e-08, No Iterations 4
Min/max T:273.15 300

Solving for fluid region air
DICPCG:  Solving for p_rgh, Initial residual = 0.115895, Final residual = 0.001125, No Iterations 34
DICPCG:  Solving for p_rgh, Initial residual = 0.0183048, Final residual = 0.000174709, No Iterations 21
diagonal:  Solving for rho, Initial residual = 0, Final residual = 0, No Iterations 0
time step continuity errors (air): sum local = 4.82096e-07, global = -6.70188e-08, cumulative = -1.52995e-06
DICPCG:  Solving for p_rgh, Initial residual = 0.0436759, Final residual = 0.000360865, No Iterations 35
DICPCG:  Solving for p_rgh, Initial residual = 0.00973186, Final residual = 8.8368e-08, No Iterations 72
diagonal:  Solving for rho, Initial residual = 0, Final residual = 0, No Iterations 0
time step continuity errors (air): sum local = 6.95279e-10, global = 1.31046e-12, cumulative = -1.52995e-06

Solving for solid region solid
DICPCG:  Solving for h, Initial residual = 0.073153, Final residual = 5.01606e-07, No Iterations 15
Min/max T:283.15 283.155
ExecutionTime = 5.47 s  ClockTime = 5 s

Region: air Courant Number mean: 0.0200998 max: 0.105309
Region: solid Diffusion Number mean: 4.82586 max: 103.258
deltaT = 0.000909091
Time = 0.00636364

diagonal:  Solving for rho, Initial residual = 0, Final residual = 0, No Iterations 0
DILUPBiCGStab:  Solving for Ux, Initial residual = 0.0698811, Final residual = 2.61239e-08, No Iterations 4
DILUPBiCGStab:  Solving for Uy, Initial residual = 0.0639342, Final residual = 3.19495e-08, No Iterations 4
DILUPBiCGStab:  Solving for Uz, Initial residual = 0.0681674, Final residual = 3.59925e-08, No Iterations 4
DILUPBiCGStab:  Solving for h, Initial residual = 0.023418, Final residual = 6.23575e-08, No Iterations 4
Min/max T:273.15 300

Solving for fluid region air
DICPCG:  Solving for p_rgh, Initial residual = 0.100496, Final residual = 0.00089694, No Iterations 27
DICPCG:  Solving for p_rgh, Initial residual = 0.0136177, Final residual = 0.000122217, No Iterations 29
diagonal:  Solving for rho, Initial residual = 0, Final residual = 0, No Iterations 0
time step continuity errors (air): sum local = 4.04669e-07, global = -1.73593e-08, cumulative = -1.54731e-06
DICPCG:  Solving for p_rgh, Initial residual = 0.0320756, Final residual = 0.000274904, No Iterations 29
DICPCG:  Solving for p_rgh, Initial residual = 0.00791222, Final residual = 7.94851e-08, No Iterations 64
diagonal:  Solving for rho, Initial residual = 0, Final residual = 0, No Iterations 0
time step continuity errors (air): sum local = 6.73525e-10, global = 1.91683e-12, cumulative = -1.5473e-06

Solving for solid region solid
DICPCG:  Solving for h, Initial residual = 0.0540884, Final residual = 9.5454e-07, No Iterations 14
Min/max T:283.15 283.156
ExecutionTime = 6.07 s  ClockTime = 6 s

Region: air Courant Number mean: 0.0187503 max: 0.100408
Region: solid Diffusion Number mean: 4.82586 max: 103.258
deltaT = 0.000909091
Time = 0.00727273

diagonal:  Solving for rho, Initial residual = 0, Final residual = 0, No Iterations 0
DILUPBiCGStab:  Solving for Ux, Initial residual = 0.0564773, Final residual = 8.17173e-08, No Iterations 4
DILUPBiCGStab:  Solving for Uy, Initial residual = 0.0556291, Final residual = 2.77756e-08, No Iterations 4
DILUPBiCGStab:  Solving for Uz, Initial residual = 0.0593528, Final residual = 3.05138e-08, No Iterations 4
DILUPBiCGStab:  Solving for h, Initial residual = 0.0210493, Final residual = 5.49295e-08, No Iterations 4
Min/max T:273.15 300

Solving for fluid region air
DICPCG:  Solving for p_rgh, Initial residual = 0.0718573, Final residual = 0.000701847, No Iterations 30
DICPCG:  Solving for p_rgh, Initial residual = 0.00990166, Final residual = 9.76617e-05, No Iterations 20
diagonal:  Solving for rho, Initial residual = 0, Final residual = 0, No Iterations 0
time step continuity errors (air): sum local = 3.43352e-07, global = -9.17305e-08, cumulative = -1.63904e-06
DICPCG:  Solving for p_rgh, Initial residual = 0.0253443, Final residual = 0.000250536, No Iterations 31
DICPCG:  Solving for p_rgh, Initial residual = 0.00573352, Final residual = 9.43934e-08, No Iterations 60
diagonal:  Solving for rho, Initial residual = 0, Final residual = 0, No Iterations 0
time step continuity errors (air): sum local = 6.99962e-10, global = -2.633e-12, cumulative = -1.63904e-06

Solving for solid region solid
DICPCG:  Solving for h, Initial residual = 0.0548775, Final residual = 9.35464e-07, No Iterations 14
Min/max T:283.15 283.156
ExecutionTime = 6.62 s  ClockTime = 7 s

Region: air Courant Number mean: 0.0177529 max: 0.0968965
Region: solid Diffusion Number mean: 4.82586 max: 103.258
deltaT = 0.000909091
Time = 0.00818182

diagonal:  Solving for rho, Initial residual = 0, Final residual = 0, No Iterations 0
DILUPBiCGStab:  Solving for Ux, Initial residual = 0.0481652, Final residual = 6.57691e-08, No Iterations 4
DILUPBiCGStab:  Solving for Uy, Initial residual = 0.0513069, Final residual = 2.53437e-08, No Iterations 4
DILUPBiCGStab:  Solving for Uz, Initial residual = 0.0519697, Final residual = 2.58673e-08, No Iterations 4
DILUPBiCGStab:  Solving for h, Initial residual = 0.0192486, Final residual = 4.9148e-08, No Iterations 4
Min/max T:273.15 299.999

Solving for fluid region air
DICPCG:  Solving for p_rgh, Initial residual = 0.0553955, Final residual = 0.000497821, No Iterations 27
DICPCG:  Solving for p_rgh, Initial residual = 0.00806358, Final residual = 7.6829e-05, No Iterations 20
diagonal:  Solving for rho, Initial residual = 0, Final residual = 0, No Iterations 0
time step continuity errors (air): sum local = 2.83599e-07, global = -4.19357e-08, cumulative = -1.68097e-06
DICPCG:  Solving for p_rgh, Initial residual = 0.0211041, Final residual = 0.000210574, No Iterations 30
DICPCG:  Solving for p_rgh, Initial residual = 0.00469778, Final residual = 7.53872e-08, No Iterations 59
diagonal:  Solving for rho, Initial residual = 0, Final residual = 0, No Iterations 0
time step continuity errors (air): sum local = 6.65429e-10, global = -1.70956e-12, cumulative = -1.68098e-06

Solving for solid region solid
DICPCG:  Solving for h, Initial residual = 0.0486717, Final residual = 8.38619e-07, No Iterations 14
Min/max T:283.15 283.156
ExecutionTime = 7.16 s  ClockTime = 7 s

Region: air Courant Number mean: 0.0169902 max: 0.0942862
Region: solid Diffusion Number mean: 4.82586 max: 103.258
deltaT = 0.000909091
Time = 0.00909091

diagonal:  Solving for rho, Initial residual = 0, Final residual = 0, No Iterations 0
DILUPBiCGStab:  Solving for Ux, Initial residual = 0.0418242, Final residual = 5.40903e-08, No Iterations 4
DILUPBiCGStab:  Solving for Uy, Initial residual = 0.0475185, Final residual = 9.26332e-08, No Iterations 4
DILUPBiCGStab:  Solving for Uz, Initial residual = 0.045618, Final residual = 9.03997e-08, No Iterations 4
DILUPBiCGStab:  Solving for h, Initial residual = 0.0178218, Final residual = 4.41156e-08, No Iterations 4
Min/max T:273.15 299.999

Solving for fluid region air
DICPCG:  Solving for p_rgh, Initial residual = 0.0452944, Final residual = 0.000432497, No Iterations 25
DICPCG:  Solving for p_rgh, Initial residual = 0.00683076, Final residual = 5.73325e-05, No Iterations 15
diagonal:  Solving for rho, Initial residual = 0, Final residual = 0, No Iterations 0
time step continuity errors (air): sum local = 2.18187e-07, global = -3.61352e-08, cumulative = -1.71711e-06
DICPCG:  Solving for p_rgh, Initial residual = 0.0180878, Final residual = 0.000152105, No Iterations 31
DICPCG:  Solving for p_rgh, Initial residual = 0.00399087, Final residual = 8.61942e-08, No Iterations 61
diagonal:  Solving for rho, Initial residual = 0, Final residual = 0, No Iterations 0
time step continuity errors (air): sum local = 7.04896e-10, global = 1.01175e-11, cumulative = -1.7171e-06

Solving for solid region solid
DICPCG:  Solving for h, Initial residual = 0.0468598, Final residual = 7.77768e-07, No Iterations 14
Min/max T:283.15 283.156
ExecutionTime = 7.69 s  ClockTime = 8 s

Region: air Courant Number mean: 0.0163971 max: 0.0923589
Region: solid Diffusion Number mean: 4.82586 max: 103.258
deltaT = 0.000909091
Time = 0.01

diagonal:  Solving for rho, Initial residual = 0, Final residual = 0, No Iterations 0
DILUPBiCGStab:  Solving for Ux, Initial residual = 0.0368947, Final residual = 4.5612e-08, No Iterations 4
DILUPBiCGStab:  Solving for Uy, Initial residual = 0.0445205, Final residual = 8.30728e-08, No Iterations 4
DILUPBiCGStab:  Solving for Uz, Initial residual = 0.0405656, Final residual = 7.64856e-08, No Iterations 4
DILUPBiCGStab:  Solving for h, Initial residual = 0.0166593, Final residual = 3.9657e-08, No Iterations 4
Min/max T:273.15 299.998

Solving for fluid region air
DICPCG:  Solving for p_rgh, Initial residual = 0.0377263, Final residual = 0.000372419, No Iterations 28
DICPCG:  Solving for p_rgh, Initial residual = 0.00592182, Final residual = 5.57867e-05, No Iterations 17
diagonal:  Solving for rho, Initial residual = 0, Final residual = 0, No Iterations 0
time step continuity errors (air): sum local = 2.16424e-07, global = -3.33908e-08, cumulative = -1.75049e-06
DICPCG:  Solving for p_rgh, Initial residual = 0.0158165, Final residual = 0.000123674, No Iterations 31
DICPCG:  Solving for p_rgh, Initial residual = 0.00348104, Final residual = 8.80848e-08, No Iterations 60
diagonal:  Solving for rho, Initial residual = 0, Final residual = 0, No Iterations 0
time step continuity errors (air): sum local = 7.01529e-10, global = 6.9633e-12, cumulative = -1.75048e-06

Solving for solid region solid
DICPCG:  Solving for h, Initial residual = 0.0450897, Final residual = 7.39916e-07, No Iterations 14
Min/max T:283.15 283.156
ExecutionTime = 8.24 s  ClockTime = 8 s

    min/max/integ(air_to_solid) = -778.498, -125.358, -0.126019
wallHeatFlux HeatFlux_air write:
    writing field wallHeatFlux
    min/max/integ(solid_to_air) = 125.384, 778.456, 0.126006
wallHeatFlux HeatFlux_solid write:
    writing field wallHeatFlux
Region: air Courant Number mean: 0.0159268 max: 0.0909331
Region: solid Diffusion Number mean: 4.82586 max: 103.258
deltaT = 0.000909091
Time = 0.0109091

diagonal:  Solving for rho, Initial residual = 0, Final residual = 0, No Iterations 0
DILUPBiCGStab:  Solving for Ux, Initial residual = 0.0329345, Final residual = 3.91797e-08, No Iterations 4
DILUPBiCGStab:  Solving for Uy, Initial residual = 0.041894, Final residual = 7.48925e-08, No Iterations 4
DILUPBiCGStab:  Solving for Uz, Initial residual = 0.0362159, Final residual = 6.50048e-08, No Iterations 4
DILUPBiCGStab:  Solving for h, Initial residual = 0.0156909, Final residual = 3.57409e-08, No Iterations 4
Min/max T:273.15 299.997

Solving for fluid region air
DICPCG:  Solving for p_rgh, Initial residual = 0.0326184, Final residual = 0.000289142, No Iterations 30
DICPCG:  Solving for p_rgh, Initial residual = 0.00526803, Final residual = 4.80252e-05, No Iterations 17
diagonal:  Solving for rho, Initial residual = 0, Final residual = 0, No Iterations 0
time step continuity errors (air): sum local = 1.87965e-07, global = -2.73238e-08, cumulative = -1.77781e-06
DICPCG:  Solving for p_rgh, Initial residual = 0.0141012, Final residual = 0.000110777, No Iterations 31
DICPCG:  Solving for p_rgh, Initial residual = 0.00310671, Final residual = 8.96843e-08, No Iterations 60
diagonal:  Solving for rho, Initial residual = 0, Final residual = 0, No Iterations 0
time step continuity errors (air): sum local = 7.16719e-10, global = 7.47116e-12, cumulative = -1.7778e-06

Solving for solid region solid
DICPCG:  Solving for h, Initial residual = 0.0442309, Final residual = 7.15931e-07, No Iterations 14
Min/max T:283.151 283.156
ExecutionTime = 8.82 s  ClockTime = 9 s

Region: air Courant Number mean: 0.0155486 max: 0.0898777
Region: solid Diffusion Number mean: 4.82586 max: 103.258
deltaT = 0.000909091
Time = 0.0118182

diagonal:  Solving for rho, Initial residual = 0, Final residual = 0, No Iterations 0
DILUPBiCGStab:  Solving for Ux, Initial residual = 0.029733, Final residual = 3.42516e-08, No Iterations 4
DILUPBiCGStab:  Solving for Uy, Initial residual = 0.0394245, Final residual = 6.74758e-08, No Iterations 4
DILUPBiCGStab:  Solving for Uz, Initial residual = 0.0323326, Final residual = 5.55394e-08, No Iterations 4
DILUPBiCGStab:  Solving for h, Initial residual = 0.014873, Final residual = 3.23506e-08, No Iterations 4
Min/max T:273.15 299.995

Solving for fluid region air
DICPCG:  Solving for p_rgh, Initial residual = 0.0286817, Final residual = 0.000268101, No Iterations 30
DICPCG:  Solving for p_rgh, Initial residual = 0.00476079, Final residual = 4.6394e-05, No Iterations 15
diagonal:  Solving for rho, Initial residual = 0, Final residual = 0, No Iterations 0
time step continuity errors (air): sum local = 1.82143e-07, global = -2.71614e-08, cumulative = -1.80496e-06
DICPCG:  Solving for p_rgh, Initial residual = 0.0127447, Final residual = 9.90524e-05, No Iterations 31
DICPCG:  Solving for p_rgh, Initial residual = 0.00281115, Final residual = 8.68966e-08, No Iterations 60
diagonal:  Solving for rho, Initial residual = 0, Final residual = 0, No Iterations 0
time step continuity errors (air): sum local = 7.05262e-10, global = 5.0585e-12, cumulative = -1.80496e-06

Solving for solid region solid
DICPCG:  Solving for h, Initial residual = 0.0433048, Final residual = 6.94249e-07, No Iterations 14
Min/max T:283.151 283.156
ExecutionTime = 9.43 s  ClockTime = 9 s

Region: air Courant Number mean: 0.0152443 max: 0.0890963
Region: solid Diffusion Number mean: 4.82586 max: 103.258
deltaT = 0.000909091
Time = 0.0127273

diagonal:  Solving for rho, Initial residual = 0, Final residual = 0, No Iterations 0
DILUPBiCGStab:  Solving for Ux, Initial residual = 0.0270441, Final residual = 3.0307e-08, No Iterations 4
DILUPBiCGStab:  Solving for Uy, Initial residual = 0.0370988, Final residual = 6.08877e-08, No Iterations 4
DILUPBiCGStab:  Solving for Uz, Initial residual = 0.029017, Final residual = 4.78464e-08, No Iterations 4
DILUPBiCGStab:  Solving for h, Initial residual = 0.0141713, Final residual = 9.4066e-08, No Iterations 4
Min/max T:273.15 299.993

Solving for fluid region air
DICPCG:  Solving for p_rgh, Initial residual = 0.0254389, Final residual = 0.00024767, No Iterations 30
DICPCG:  Solving for p_rgh, Initial residual = 0.00433403, Final residual = 3.71124e-05, No Iterations 15
diagonal:  Solving for rho, Initial residual = 0, Final residual = 0, No Iterations 0
time step continuity errors (air): sum local = 1.45841e-07, global = -2.67797e-08, cumulative = -1.83174e-06
DICPCG:  Solving for p_rgh, Initial residual = 0.0115982, Final residual = 9.53106e-05, No Iterations 31
DICPCG:  Solving for p_rgh, Initial residual = 0.00256696, Final residual = 8.91164e-08, No Iterations 60
diagonal:  Solving for rho, Initial residual = 0, Final residual = 0, No Iterations 0
time step continuity errors (air): sum local = 7.12107e-10, global = 6.82763e-12, cumulative = -1.83173e-06

Solving for solid region solid
DICPCG:  Solving for h, Initial residual = 0.0423177, Final residual = 6.73719e-07, No Iterations 14
Min/max T:283.151 283.156
ExecutionTime = 9.98 s  ClockTime = 10 s

Region: air Courant Number mean: 0.0150021 max: 0.088521
Region: solid Diffusion Number mean: 4.82586 max: 103.258
deltaT = 0.000909091
Time = 0.0136364

diagonal:  Solving for rho, Initial residual = 0, Final residual = 0, No Iterations 0
DILUPBiCGStab:  Solving for Ux, Initial residual = 0.0247442, Final residual = 2.70701e-08, No Iterations 4
DILUPBiCGStab:  Solving for Uy, Initial residual = 0.0347915, Final residual = 5.51153e-08, No Iterations 4
DILUPBiCGStab:  Solving for Uz, Initial residual = 0.0262206, Final residual = 4.15487e-08, No Iterations 4
DILUPBiCGStab:  Solving for h, Initial residual = 0.0135613, Final residual = 8.51018e-08, No Iterations 4
Min/max T:273.15 299.99

Solving for fluid region air
DICPCG:  Solving for p_rgh, Initial residual = 0.022883, Final residual = 0.000206299, No Iterations 30
DICPCG:  Solving for p_rgh, Initial residual = 0.00396979, Final residual = 3.66365e-05, No Iterations 14
diagonal:  Solving for rho, Initial residual = 0, Final residual = 0, No Iterations 0
time step continuity errors (air): sum local = 1.44195e-07, global = -2.04685e-08, cumulative = -1.8522e-06
DICPCG:  Solving for p_rgh, Initial residual = 0.0106249, Final residual = 8.18104e-05, No Iterations 35
DICPCG:  Solving for p_rgh, Initial residual = 0.00236003, Final residual = 7.24549e-08, No Iterations 60
diagonal:  Solving for rho, Initial residual = 0, Final residual = 0, No Iterations 0
time step continuity errors (air): sum local = 6.73304e-10, global = 2.39063e-12, cumulative = -1.8522e-06

Solving for solid region solid
DICPCG:  Solving for h, Initial residual = 0.0417278, Final residual = 6.58293e-07, No Iterations 14
Min/max T:283.151 283.156
ExecutionTime = 10.55 s  ClockTime = 10 s

Region: air Courant Number mean: 0.0148104 max: 0.0881046
Region: solid Diffusion Number mean: 4.82586 max: 103.258
deltaT = 0.000909091
Time = 0.0145455

diagonal:  Solving for rho, Initial residual = 0, Final residual = 0, No Iterations 0
DILUPBiCGStab:  Solving for Ux, Initial residual = 0.0226528, Final residual = 2.43239e-08, No Iterations 4
DILUPBiCGStab:  Solving for Uy, Initial residual = 0.032906, Final residual = 5.00986e-08, No Iterations 4
DILUPBiCGStab:  Solving for Uz, Initial residual = 0.0239272, Final residual = 3.66085e-08, No Iterations 4
DILUPBiCGStab:  Solving for h, Initial residual = 0.0130207, Final residual = 7.76065e-08, No Iterations 4
Min/max T:273.15 299.987

Solving for fluid region air
DICPCG:  Solving for p_rgh, Initial residual = 0.0208446, Final residual = 0.000200634, No Iterations 30
DICPCG:  Solving for p_rgh, Initial residual = 0.00368472, Final residual = 3.25736e-05, No Iterations 14
diagonal:  Solving for rho, Initial residual = 0, Final residual = 0, No Iterations 0
time step continuity errors (air): sum local = 1.27575e-07, global = -2.33079e-08, cumulative = -1.8755e-06
DICPCG:  Solving for p_rgh, Initial residual = 0.00985276, Final residual = 9.61528e-05, No Iterations 34
DICPCG:  Solving for p_rgh, Initial residual = 0.00219705, Final residual = 9.77463e-08, No Iterations 59
diagonal:  Solving for rho, Initial residual = 0, Final residual = 0, No Iterations 0
time step continuity errors (air): sum local = 7.34813e-10, global = 7.92642e-12, cumulative = -1.8755e-06

Solving for solid region solid
DICPCG:  Solving for h, Initial residual = 0.041262, Final residual = 6.44844e-07, No Iterations 14
Min/max T:283.151 283.156
ExecutionTime = 11.09 s  ClockTime = 11 s

Region: air Courant Number mean: 0.0146571 max: 0.0878091
Region: solid Diffusion Number mean: 4.82586 max: 103.258
deltaT = 0.000909091
Time = 0.0154545

diagonal:  Solving for rho, Initial residual = 0, Final residual = 0, No Iterations 0
DILUPBiCGStab:  Solving for Ux, Initial residual = 0.0208728, Final residual = 2.20402e-08, No Iterations 4
DILUPBiCGStab:  Solving for Uy, Initial residual = 0.0311088, Final residual = 4.55705e-08, No Iterations 4
DILUPBiCGStab:  Solving for Uz, Initial residual = 0.0218317, Final residual = 3.22955e-08, No Iterations 4
DILUPBiCGStab:  Solving for h, Initial residual = 0.0125328, Final residual = 7.12476e-08, No Iterations 4
Min/max T:273.15 299.982

Solving for fluid region air
DICPCG:  Solving for p_rgh, Initial residual = 0.0190188, Final residual = 0.00018935, No Iterations 30
DICPCG:  Solving for p_rgh, Initial residual = 0.00343722, Final residual = 3.29814e-05, No Iterations 14
diagonal:  Solving for rho, Initial residual = 0, Final residual = 0, No Iterations 0
time step continuity errors (air): sum local = 1.28435e-07, global = -2.45367e-08, cumulative = -1.90003e-06
DICPCG:  Solving for p_rgh, Initial residual = 0.00918609, Final residual = 9.14163e-05, No Iterations 31
DICPCG:  Solving for p_rgh, Initial residual = 0.00205386, Final residual = 8.02372e-08, No Iterations 60
diagonal:  Solving for rho, Initial residual = 0, Final residual = 0, No Iterations 0
time step continuity errors (air): sum local = 6.92732e-10, global = 4.78739e-12, cumulative = -1.90003e-06

Solving for solid region solid
DICPCG:  Solving for h, Initial residual = 0.040843, Final residual = 6.33077e-07, No Iterations 14
Min/max T:283.151 283.157
ExecutionTime = 11.63 s  ClockTime = 12 s

Region: air Courant Number mean: 0.0145376 max: 0.0876008
Region: solid Diffusion Number mean: 4.82586 max: 103.258
deltaT = 0.000909091
Time = 0.0163636

diagonal:  Solving for rho, Initial residual = 0, Final residual = 0, No Iterations 0
DILUPBiCGStab:  Solving for Ux, Initial residual = 0.0193028, Final residual = 2.00781e-08, No Iterations 4
DILUPBiCGStab:  Solving for Uy, Initial residual = 0.0293528, Final residual = 4.15723e-08, No Iterations 4
DILUPBiCGStab:  Solving for Uz, Initial residual = 0.0200071, Final residual = 2.86515e-08, No Iterations 4
DILUPBiCGStab:  Solving for h, Initial residual = 0.0120846, Final residual = 6.57803e-08, No Iterations 4
Min/max T:273.15 299.977

Solving for fluid region air
DICPCG:  Solving for p_rgh, Initial residual = 0.0174915, Final residual = 0.000162525, No Iterations 19
DICPCG:  Solving for p_rgh, Initial residual = 0.00321667, Final residual = 3.17484e-05, No Iterations 29
diagonal:  Solving for rho, Initial residual = 0, Final residual = 0, No Iterations 0
time step continuity errors (air): sum local = 1.22472e-07, global = 6.12941e-09, cumulative = -1.8939e-06
DICPCG:  Solving for p_rgh, Initial residual = 0.00860151, Final residual = 6.58648e-05, No Iterations 35
DICPCG:  Solving for p_rgh, Initial residual = 0.00193251, Final residual = 8.96333e-08, No Iterations 59
diagonal:  Solving for rho, Initial residual = 0, Final residual = 0, No Iterations 0
time step continuity errors (air): sum local = 7.17051e-10, global = 2.71071e-12, cumulative = -1.8939e-06

Solving for solid region solid
DICPCG:  Solving for h, Initial residual = 0.0404246, Final residual = 6.22444e-07, No Iterations 14
Min/max T:283.152 283.157
ExecutionTime = 12.18 s  ClockTime = 12 s

Region: air Courant Number mean: 0.0144462 max: 0.0874597
Region: solid Diffusion Number mean: 4.82586 max: 103.258
deltaT = 0.000909091
Time = 0.0172727

diagonal:  Solving for rho, Initial residual = 0, Final residual = 0, No Iterations 0
DILUPBiCGStab:  Solving for Ux, Initial residual = 0.0179355, Final residual = 1.84339e-08, No Iterations 4
DILUPBiCGStab:  Solving for Uy, Initial residual = 0.0276976, Final residual = 3.81577e-08, No Iterations 4
DILUPBiCGStab:  Solving for Uz, Initial residual = 0.0184108, Final residual = 2.55785e-08, No Iterations 4
DILUPBiCGStab:  Solving for h, Initial residual = 0.0116732, Final residual = 6.10565e-08, No Iterations 4
Min/max T:273.15 299.971

Solving for fluid region air
DICPCG:  Solving for p_rgh, Initial residual = 0.0162074, Final residual = 0.00014157, No Iterations 19
DICPCG:  Solving for p_rgh, Initial residual = 0.00302924, Final residual = 2.50665e-05, No Iterations 30
diagonal:  Solving for rho, Initial residual = 0, Final residual = 0, No Iterations 0
time step continuity errors (air): sum local = 9.61584e-08, global = 1.72549e-09, cumulative = -1.89217e-06
DICPCG:  Solving for p_rgh, Initial residual = 0.00810547, Final residual = 6.66742e-05, No Iterations 35
DICPCG:  Solving for p_rgh, Initial residual = 0.00182808, Final residual = 8.47089e-08, No Iterations 59
diagonal:  Solving for rho, Initial residual = 0, Final residual = 0, No Iterations 0
time step continuity errors (air): sum local = 7.00009e-10, global = -6.73174e-13, cumulative = -1.89217e-06

Solving for solid region solid
DICPCG:  Solving for h, Initial residual = 0.0400614, Final residual = 6.12948e-07, No Iterations 14
Min/max T:283.152 283.157
ExecutionTime = 12.74 s  ClockTime = 13 s

Region: air Courant Number mean: 0.014378 max: 0.0873659
Region: solid Diffusion Number mean: 4.82586 max: 103.258
deltaT = 0.000909091
Time = 0.0181818

diagonal:  Solving for rho, Initial residual = 0, Final residual = 0, No Iterations 0
DILUPBiCGStab:  Solving for Ux, Initial residual = 0.016682, Final residual = 1.69419e-08, No Iterations 4
DILUPBiCGStab:  Solving for Uy, Initial residual = 0.0261496, Final residual = 3.50908e-08, No Iterations 4
DILUPBiCGStab:  Solving for Uz, Initial residual = 0.017023, Final residual = 2.30391e-08, No Iterations 4
DILUPBiCGStab:  Solving for h, Initial residual = 0.0112957, Final residual = 5.69471e-08, No Iterations 4
Min/max T:273.15 299.963

Solving for fluid region air
DICPCG:  Solving for p_rgh, Initial residual = 0.0150942, Final residual = 0.000140531, No Iterations 18
DICPCG:  Solving for p_rgh, Initial residual = 0.00286225, Final residual = 2.63024e-05, No Iterations 30
diagonal:  Solving for rho, Initial residual = 0, Final residual = 0, No Iterations 0
time step continuity errors (air): sum local = 1.00253e-07, global = -2.96758e-09, cumulative = -1.89514e-06
DICPCG:  Solving for p_rgh, Initial residual = 0.00765881, Final residual = 6.57462e-05, No Iterations 35
DICPCG:  Solving for p_rgh, Initial residual = 0.00173026, Final residual = 7.9888e-08, No Iterations 59
diagonal:  Solving for rho, Initial residual = 0, Final residual = 0, No Iterations 0
time step continuity errors (air): sum local = 6.83396e-10, global = 3.94719e-12, cumulative = -1.89513e-06

Solving for solid region solid
DICPCG:  Solving for h, Initial residual = 0.0397452, Final residual = 6.04377e-07, No Iterations 14
Min/max T:283.152 283.157
ExecutionTime = 13.32 s  ClockTime = 13 s

Region: air Courant Number mean: 0.0143326 max: 0.0882127
Region: solid Diffusion Number mean: 4.82586 max: 103.258
deltaT = 0.000909091
Time = 0.0190909

diagonal:  Solving for rho, Initial residual = 0, Final residual = 0, No Iterations 0
DILUPBiCGStab:  Solving for Ux, Initial residual = 0.0155508, Final residual = 1.56418e-08, No Iterations 4
DILUPBiCGStab:  Solving for Uy, Initial residual = 0.0247606, Final residual = 3.23662e-08, No Iterations 4
DILUPBiCGStab:  Solving for Uz, Initial residual = 0.0157781, Final residual = 2.09708e-08, No Iterations 4
DILUPBiCGStab:  Solving for h, Initial residual = 0.0109492, Final residual = 5.33505e-08, No Iterations 4
Min/max T:273.15 299.954

Solving for fluid region air
DICPCG:  Solving for p_rgh, Initial residual = 0.0141174, Final residual = 0.000124386, No Iterations 18
DICPCG:  Solving for p_rgh, Initial residual = 0.00270928, Final residual = 2.67932e-05, No Iterations 32
diagonal:  Solving for rho, Initial residual = 0, Final residual = 0, No Iterations 0
time step continuity errors (air): sum local = 1.01312e-07, global = -1.16258e-08, cumulative = -1.90676e-06
DICPCG:  Solving for p_rgh, Initial residual = 0.00727082, Final residual = 6.34128e-05, No Iterations 35
DICPCG:  Solving for p_rgh, Initial residual = 0.00164507, Final residual = 7.64907e-08, No Iterations 59
diagonal:  Solving for rho, Initial residual = 0, Final residual = 0, No Iterations 0
time step continuity errors (air): sum local = 6.75654e-10, global = 6.07742e-12, cumulative = -1.90675e-06

Solving for solid region solid
DICPCG:  Solving for h, Initial residual = 0.0394564, Final residual = 5.96619e-07, No Iterations 14
Min/max T:283.152 283.157
ExecutionTime = 13.88 s  ClockTime = 14 s

Region: air Courant Number mean: 0.0143057 max: 0.089444
Region: solid Diffusion Number mean: 4.82586 max: 103.258
deltaT = 0.000909091
Time = 0.02

diagonal:  Solving for rho, Initial residual = 0, Final residual = 0, No Iterations 0
DILUPBiCGStab:  Solving for Ux, Initial residual = 0.0145177, Final residual = 1.44818e-08, No Iterations 4
DILUPBiCGStab:  Solving for Uy, Initial residual = 0.0235076, Final residual = 2.99016e-08, No Iterations 4
DILUPBiCGStab:  Solving for Uz, Initial residual = 0.0146948, Final residual = 1.92749e-08, No Iterations 4
DILUPBiCGStab:  Solving for h, Initial residual = 0.0106301, Final residual = 5.01821e-08, No Iterations 4
Min/max T:273.15 299.944

Solving for fluid region air
DICPCG:  Solving for p_rgh, Initial residual = 0.0132609, Final residual = 0.000127313, No Iterations 17
DICPCG:  Solving for p_rgh, Initial residual = 0.00257453, Final residual = 2.55707e-05, No Iterations 33
diagonal:  Solving for rho, Initial residual = 0, Final residual = 0, No Iterations 0
time step continuity errors (air): sum local = 9.59696e-08, global = -8.41474e-09, cumulative = -1.91517e-06
DICPCG:  Solving for p_rgh, Initial residual = 0.00693555, Final residual = 5.67151e-05, No Iterations 35
DICPCG:  Solving for p_rgh, Initial residual = 0.00156886, Final residual = 7.43783e-08, No Iterations 59
diagonal:  Solving for rho, Initial residual = 0, Final residual = 0, No Iterations 0
time step continuity errors (air): sum local = 6.7538e-10, global = 3.92566e-12, cumulative = -1.91517e-06

Solving for solid region solid
DICPCG:  Solving for h, Initial residual = 0.0391845, Final residual = 5.89428e-07, No Iterations 14
Min/max T:283.152 283.157
ExecutionTime = 14.44 s  ClockTime = 14 s

    min/max/integ(air_to_solid) = -558.495, 197.161, -0.0845857
wallHeatFlux HeatFlux_air write:
    writing field wallHeatFlux
    min/max/integ(solid_to_air) = -197.152, 558.462, 0.0845771
wallHeatFlux HeatFlux_solid write:
    writing field wallHeatFlux
Region: air Courant Number mean: 0.014293 max: 0.090609
Region: solid Diffusion Number mean: 4.82586 max: 103.258
deltaT = 0.000909091
Time = 0.0209091

diagonal:  Solving for rho, Initial residual = 0, Final residual = 0, No Iterations 0
DILUPBiCGStab:  Solving for Ux, Initial residual = 0.0136066, Final residual = 1.34588e-08, No Iterations 4
DILUPBiCGStab:  Solving for Uy, Initial residual = 0.0222964, Final residual = 2.76935e-08, No Iterations 4
DILUPBiCGStab:  Solving for Uz, Initial residual = 0.0137053, Final residual = 1.77419e-08, No Iterations 4
DILUPBiCGStab:  Solving for h, Initial residual = 0.0103354, Final residual = 4.73727e-08, No Iterations 4
Min/max T:273.15 299.933

Solving for fluid region air
DICPCG:  Solving for p_rgh, Initial residual = 0.0125194, Final residual = 0.000120036, No Iterations 17
DICPCG:  Solving for p_rgh, Initial residual = 0.00245672, Final residual = 1.95021e-05, No Iterations 34
diagonal:  Solving for rho, Initial residual = 0, Final residual = 0, No Iterations 0
time step continuity errors (air): sum local = 7.26421e-08, global = -4.98513e-09, cumulative = -1.92015e-06
DICPCG:  Solving for p_rgh, Initial residual = 0.00662486, Final residual = 5.3293e-05, No Iterations 35
DICPCG:  Solving for p_rgh, Initial residual = 0.00150088, Final residual = 7.18561e-08, No Iterations 59
diagonal:  Solving for rho, Initial residual = 0, Final residual = 0, No Iterations 0
time step continuity errors (air): sum local = 6.68747e-10, global = 1.2894e-12, cumulative = -1.92015e-06

Solving for solid region solid
DICPCG:  Solving for h, Initial residual = 0.0389292, Final residual = 5.82714e-07, No Iterations 14
Min/max T:283.152 283.157
ExecutionTime = 15 s  ClockTime = 15 s

Region: air Courant Number mean: 0.0142927 max: 0.0917037
Region: solid Diffusion Number mean: 4.82586 max: 103.258
deltaT = 0.000909091
Time = 0.0218182

diagonal:  Solving for rho, Initial residual = 0, Final residual = 0, No Iterations 0
DILUPBiCGStab:  Solving for Ux, Initial residual = 0.0127763, Final residual = 1.25278e-08, No Iterations 4
DILUPBiCGStab:  Solving for Uy, Initial residual = 0.0211364, Final residual = 2.57575e-08, No Iterations 4
DILUPBiCGStab:  Solving for Uz, Initial residual = 0.0127997, Final residual = 1.64075e-08, No Iterations 4
DILUPBiCGStab:  Solving for h, Initial residual = 0.0100626, Final residual = 4.48682e-08, No Iterations 4
Min/max T:273.15 299.92

Solving for fluid region air
DICPCG:  Solving for p_rgh, Initial residual = 0.0118424, Final residual = 0.000115338, No Iterations 17
DICPCG:  Solving for p_rgh, Initial residual = 0.00235142, Final residual = 2.1997e-05, No Iterations 29
diagonal:  Solving for rho, Initial residual = 0, Final residual = 0, No Iterations 0
time step continuity errors (air): sum local = 8.12201e-08, global = -8.47597e-09, cumulative = -1.92862e-06
DICPCG:  Solving for p_rgh, Initial residual = 0.00635754, Final residual = 5.73567e-05, No Iterations 31
DICPCG:  Solving for p_rgh, Initial residual = 0.0014377, Final residual = 7.13971e-08, No Iterations 59
diagonal:  Solving for rho, Initial residual = 0, Final residual = 0, No Iterations 0
time step continuity errors (air): sum local = 6.58486e-10, global = 7.09937e-12, cumulative = -1.92862e-06

Solving for solid region solid
DICPCG:  Solving for h, Initial residual = 0.038689, Final residual = 5.76419e-07, No Iterations 14
Min/max T:283.153 283.157
ExecutionTime = 15.59 s  ClockTime = 16 s

Region: air Courant Number mean: 0.0143012 max: 0.0927272
Region: solid Diffusion Number mean: 4.82586 max: 103.258
deltaT = 0.000909091
Time = 0.0227273

diagonal:  Solving for rho, Initial residual = 0, Final residual = 0, No Iterations 0
DILUPBiCGStab:  Solving for Ux, Initial residual = 0.0120248, Final residual = 9.39369e-08, No Iterations 3
DILUPBiCGStab:  Solving for Uy, Initial residual = 0.0200547, Final residual = 2.40671e-08, No Iterations 4
DILUPBiCGStab:  Solving for Uz, Initial residual = 0.0119978, Final residual = 1.52151e-08, No Iterations 4
DILUPBiCGStab:  Solving for h, Initial residual = 0.00980916, Final residual = 4.26223e-08, No Iterations 4
Min/max T:273.15 299.905

Solving for fluid region air
DICPCG:  Solving for p_rgh, Initial residual = 0.0112857, Final residual = 0.000111456, No Iterations 17
DICPCG:  Solving for p_rgh, Initial residual = 0.00225478, Final residual = 2.18768e-05, No Iterations 19
diagonal:  Solving for rho, Initial residual = 0, Final residual = 0, No Iterations 0
time step continuity errors (air): sum local = 8.00652e-08, global = -1.34152e-08, cumulative = -1.94203e-06
DICPCG:  Solving for p_rgh, Initial residual = 0.00610841, Final residual = 5.45548e-05, No Iterations 25
DICPCG:  Solving for p_rgh, Initial residual = 0.00138102, Final residual = 9.03019e-08, No Iterations 48
diagonal:  Solving for rho, Initial residual = 0, Final residual = 0, No Iterations 0
time step continuity errors (air): sum local = 6.57572e-10, global = 1.27881e-12, cumulative = -1.94203e-06

Solving for solid region solid
DICPCG:  Solving for h, Initial residual = 0.0384578, Final residual = 5.70464e-07, No Iterations 14
Min/max T:283.153 283.157
ExecutionTime = 16.09 s  ClockTime = 16 s

Region: air Courant Number mean: 0.0143181 max: 0.0936786
Region: solid Diffusion Number mean: 4.82586 max: 103.258
deltaT = 0.000909091
Time = 0.0236364

diagonal:  Solving for rho, Initial residual = 0, Final residual = 0, No Iterations 0
DILUPBiCGStab:  Solving for Ux, Initial residual = 0.011332, Final residual = 8.7844e-08, No Iterations 3
DILUPBiCGStab:  Solving for Uy, Initial residual = 0.0190435, Final residual = 2.25166e-08, No Iterations 4
DILUPBiCGStab:  Solving for Uz, Initial residual = 0.0112893, Final residual = 9.89377e-08, No Iterations 3
DILUPBiCGStab:  Solving for h, Initial residual = 0.00957295, Final residual = 4.05972e-08, No Iterations 4
Min/max T:273.15 299.889

Solving for fluid region air
DICPCG:  Solving for p_rgh, Initial residual = 0.0107452, Final residual = 8.40755e-05, No Iterations 18
DICPCG:  Solving for p_rgh, Initial residual = 0.00216521, Final residual = 1.78978e-05, No Iterations 17
diagonal:  Solving for rho, Initial residual = 0, Final residual = 0, No Iterations 0
time step continuity errors (air): sum local = 6.4983e-08, global = -4.01273e-09, cumulative = -1.94604e-06
DICPCG:  Solving for p_rgh, Initial residual = 0.0058781, Final residual = 5.77651e-05, No Iterations 25
DICPCG:  Solving for p_rgh, Initial residual = 0.00133044, Final residual = 8.61334e-08, No Iterations 55
diagonal:  Solving for rho, Initial residual = 0, Final residual = 0, No Iterations 0
time step continuity errors (air): sum local = 6.87111e-10, global = -9.28853e-12, cumulative = -1.94605e-06

Solving for solid region solid
DICPCG:  Solving for h, Initial residual = 0.0382344, Final residual = 5.64799e-07, No Iterations 14
Min/max T:283.153 283.157
ExecutionTime = 16.59 s  ClockTime = 17 s

Region: air Courant Number mean: 0.0143426 max: 0.094559
Region: solid Diffusion Number mean: 4.82586 max: 103.258
deltaT = 0.000909091
Time = 0.0245455

diagonal:  Solving for rho, Initial residual = 0, Final residual = 0, No Iterations 0
DILUPBiCGStab:  Solving for Ux, Initial residual = 0.0107059, Final residual = 8.24915e-08, No Iterations 3
DILUPBiCGStab:  Solving for Uy, Initial residual = 0.0181131, Final residual = 2.1158e-08, No Iterations 4
DILUPBiCGStab:  Solving for Uz, Initial residual = 0.0106536, Final residual = 9.2655e-08, No Iterations 3
DILUPBiCGStab:  Solving for h, Initial residual = 0.00935204, Final residual = 3.87605e-08, No Iterations 4
Min/max T:273.15 299.871

Solving for fluid region air
DICPCG:  Solving for p_rgh, Initial residual = 0.0102553, Final residual = 8.23557e-05, No Iterations 18
DICPCG:  Solving for p_rgh, Initial residual = 0.00208407, Final residual = 2.04934e-05, No Iterations 16
diagonal:  Solving for rho, Initial residual = 0, Final residual = 0, No Iterations 0
time step continuity errors (air): sum local = 7.37891e-08, global = -4.57946e-10, cumulative = -1.94651e-06
DICPCG:  Solving for p_rgh, Initial residual = 0.00567113, Final residual = 5.06712e-05, No Iterations 31
DICPCG:  Solving for p_rgh, Initial residual = 0.00128395, Final residual = 9.16066e-08, No Iterations 58
diagonal:  Solving for rho, Initial residual = 0, Final residual = 0, No Iterations 0
time step continuity errors (air): sum local = 6.92407e-10, global = 9.10239e-12, cumulative = -1.9465e-06

Solving for solid region solid
DICPCG:  Solving for h, Initial residual = 0.0380165, Final residual = 5.59379e-07, No Iterations 14
Min/max T:283.153 283.157
ExecutionTime = 17.18 s  ClockTime = 17 s

Region: air Courant Number mean: 0.0143738 max: 0.0953692
Region: solid Diffusion Number mean: 4.82586 max: 103.258
deltaT = 0.000909091
Time = 0.0254545

diagonal:  Solving for rho, Initial residual = 0, Final residual = 0, No Iterations 0
DILUPBiCGStab:  Solving for Ux, Initial residual = 0.0101303, Final residual = 7.75195e-08, No Iterations 3
DILUPBiCGStab:  Solving for Uy, Initial residual = 0.0172416, Final residual = 1.99591e-08, No Iterations 4
DILUPBiCGStab:  Solving for Uz, Initial residual = 0.0100603, Final residual = 8.69482e-08, No Iterations 3
DILUPBiCGStab:  Solving for h, Initial residual = 0.00914484, Final residual = 3.70872e-08, No Iterations 4
Min/max T:273.15 299.852

Solving for fluid region air
DICPCG:  Solving for p_rgh, Initial residual = 0.00979931, Final residual = 8.13231e-05, No Iterations 18
DICPCG:  Solving for p_rgh, Initial residual = 0.00200867, Final residual = 1.64399e-05, No Iterations 17
diagonal:  Solving for rho, Initial residual = 0, Final residual = 0, No Iterations 0
time step continuity errors (air): sum local = 5.87274e-08, global = 2.22936e-09, cumulative = -1.94427e-06
DICPCG:  Solving for p_rgh, Initial residual = 0.00547498, Final residual = 5.05815e-05, No Iterations 31
DICPCG:  Solving for p_rgh, Initial residual = 0.00124057, Final residual = 8.76857e-08, No Iterations 58
diagonal:  Solving for rho, Initial residual = 0, Final residual = 0, No Iterations 0
time step continuity errors (air): sum local = 6.84756e-10, global = 1.32018e-11, cumulative = -1.94426e-06

Solving for solid region solid
DICPCG:  Solving for h, Initial residual = 0.0378025, Final residual = 5.54159e-07, No Iterations 14
Min/max T:283.153 283.158
ExecutionTime = 17.73 s  ClockTime = 18 s

Region: air Courant Number mean: 0.0144108 max: 0.0961112
Region: solid Diffusion Number mean: 4.82586 max: 103.258
deltaT = 0.000909091
Time = 0.0263636

diagonal:  Solving for rho, Initial residual = 0, Final residual = 0, No Iterations 0
DILUPBiCGStab:  Solving for Ux, Initial residual = 0.00959496, Final residual = 7.29446e-08, No Iterations 3
DILUPBiCGStab:  Solving for Uy, Initial residual = 0.016417, Final residual = 1.88699e-08, No Iterations 4
DILUPBiCGStab:  Solving for Uz, Initial residual = 0.00952176, Final residual = 8.1874e-08, No Iterations 3
DILUPBiCGStab:  Solving for h, Initial residual = 0.00895003, Final residual = 3.5558e-08, No Iterations 4
Min/max T:273.15 299.831

Solving for fluid region air
DICPCG:  Solving for p_rgh, Initial residual = 0.00939995, Final residual = 8.11069e-05, No Iterations 18
DICPCG:  Solving for p_rgh, Initial residual = 0.00193727, Final residual = 1.69121e-05, No Iterations 17
diagonal:  Solving for rho, Initial residual = 0, Final residual = 0, No Iterations 0
time step continuity errors (air): sum local = 5.99274e-08, global = 5.63883e-09, cumulative = -1.93862e-06
DICPCG:  Solving for p_rgh, Initial residual = 0.00529459, Final residual = 5.0772e-05, No Iterations 31
DICPCG:  Solving for p_rgh, Initial residual = 0.00120026, Final residual = 8.48625e-08, No Iterations 58
diagonal:  Solving for rho, Initial residual = 0, Final residual = 0, No Iterations 0
time step continuity errors (air): sum local = 6.78293e-10, global = 8.22437e-12, cumulative = -1.93861e-06

Solving for solid region solid
DICPCG:  Solving for h, Initial residual = 0.0375914, Final residual = 5.49132e-07, No Iterations 14
Min/max T:283.153 283.158
ExecutionTime = 18.24 s  ClockTime = 18 s

Region: air Courant Number mean: 0.0144522 max: 0.0967862
Region: solid Diffusion Number mean: 4.82586 max: 103.258
deltaT = 0.000909091
Time = 0.0272727

diagonal:  Solving for rho, Initial residual = 0, Final residual = 0, No Iterations 0
DILUPBiCGStab:  Solving for Ux, Initial residual = 0.00910095, Final residual = 6.87893e-08, No Iterations 3
DILUPBiCGStab:  Solving for Uy, Initial residual = 0.0156753, Final residual = 1.78114e-08, No Iterations 4
DILUPBiCGStab:  Solving for Uz, Initial residual = 0.00906981, Final residual = 7.76993e-08, No Iterations 3
DILUPBiCGStab:  Solving for h, Initial residual = 0.00876635, Final residual = 3.41544e-08, No Iterations 4
Min/max T:273.15 299.808

Solving for fluid region air
DICPCG:  Solving for p_rgh, Initial residual = 0.009068, Final residual = 8.15622e-05, No Iterations 18
DICPCG:  Solving for p_rgh, Initial residual = 0.00187608, Final residual = 1.82744e-05, No Iterations 17
diagonal:  Solving for rho, Initial residual = 0, Final residual = 0, No Iterations 0
time step continuity errors (air): sum local = 6.4288e-08, global = 1.18339e-08, cumulative = -1.92678e-06
DICPCG:  Solving for p_rgh, Initial residual = 0.00513019, Final residual = 4.88891e-05, No Iterations 34
DICPCG:  Solving for p_rgh, Initial residual = 0.00116395, Final residual = 8.81848e-08, No Iterations 58
diagonal:  Solving for rho, Initial residual = 0, Final residual = 0, No Iterations 0
time step continuity errors (air): sum local = 6.85066e-10, global = -4.51359e-13, cumulative = -1.92678e-06

Solving for solid region solid
DICPCG:  Solving for h, Initial residual = 0.0373809, Final residual = 5.44248e-07, No Iterations 14
Min/max T:283.153 283.158
ExecutionTime = 18.75 s  ClockTime = 19 s

Region: air Courant Number mean: 0.0144984 max: 0.0973956
Region: solid Diffusion Number mean: 4.82586 max: 103.258
deltaT = 0.000909091
Time = 0.0281818

diagonal:  Solving for rho, Initial residual = 0, Final residual = 0, No Iterations 0
DILUPBiCGStab:  Solving for Ux, Initial residual = 0.00865542, Final residual = 6.50651e-08, No Iterations 3
DILUPBiCGStab:  Solving for Uy, Initial residual = 0.0149394, Final residual = 1.68593e-08, No Iterations 4
DILUPBiCGStab:  Solving for Uz, Initial residual = 0.00858978, Final residual = 7.32098e-08, No Iterations 3
DILUPBiCGStab:  Solving for h, Initial residual = 0.00859281, Final residual = 3.2862e-08, No Iterations 4
Min/max T:273.15 299.783

Solving for fluid region air
DICPCG:  Solving for p_rgh, Initial residual = 0.00865927, Final residual = 8.10905e-05, No Iterations 18
DICPCG:  Solving for p_rgh, Initial residual = 0.00182025, Final residual = 1.56573e-05, No Iterations 18
diagonal:  Solving for rho, Initial residual = 0, Final residual = 0, No Iterations 0
time step continuity errors (air): sum local = 5.45939e-08, global = 1.04164e-08, cumulative = -1.91636e-06
DICPCG:  Solving for p_rgh, Initial residual = 0.00497676, Final residual = 4.82215e-05, No Iterations 34
DICPCG:  Solving for p_rgh, Initial residual = 0.00112987, Final residual = 8.45895e-08, No Iterations 58
diagonal:  Solving for rho, Initial residual = 0, Final residual = 0, No Iterations 0
time step continuity errors (air): sum local = 6.8172e-10, global = 6.36119e-12, cumulative = -1.91636e-06

Solving for solid region solid
DICPCG:  Solving for h, Initial residual = 0.0371691, Final residual = 5.39493e-07, No Iterations 14
Min/max T:283.154 283.158
ExecutionTime = 19.27 s  ClockTime = 19 s

Region: air Courant Number mean: 0.0145473 max: 0.0979409
Region: solid Diffusion Number mean: 4.82586 max: 103.258
deltaT = 0.000909091
Time = 0.0290909

diagonal:  Solving for rho, Initial residual = 0, Final residual = 0, No Iterations 0
DILUPBiCGStab:  Solving for Ux, Initial residual = 0.0082351, Final residual = 6.15032e-08, No Iterations 3
DILUPBiCGStab:  Solving for Uy, Initial residual = 0.0142386, Final residual = 1.60206e-08, No Iterations 4
DILUPBiCGStab:  Solving for Uz, Initial residual = 0.00814997, Final residual = 6.92074e-08, No Iterations 3
DILUPBiCGStab:  Solving for h, Initial residual = 0.00842851, Final residual = 3.16672e-08, No Iterations 4
Min/max T:273.15 299.756

Solving for fluid region air
DICPCG:  Solving for p_rgh, Initial residual = 0.00834771, Final residual = 8.18214e-05, No Iterations 18
DICPCG:  Solving for p_rgh, Initial residual = 0.0017683, Final residual = 1.62642e-05, No Iterations 23
diagonal:  Solving for rho, Initial residual = 0, Final residual = 0, No Iterations 0
time step continuity errors (air): sum local = 5.62884e-08, global = 1.48607e-08, cumulative = -1.9015e-06
DICPCG:  Solving for p_rgh, Initial residual = 0.00483326, Final residual = 4.81677e-05, No Iterations 34
DICPCG:  Solving for p_rgh, Initial residual = 0.00109758, Final residual = 8.30385e-08, No Iterations 58
diagonal:  Solving for rho, Initial residual = 0, Final residual = 0, No Iterations 0
time step continuity errors (air): sum local = 6.70929e-10, global = 6.89498e-12, cumulative = -1.90149e-06

Solving for solid region solid
DICPCG:  Solving for h, Initial residual = 0.0369547, Final residual = 5.34839e-07, No Iterations 14
Min/max T:283.154 283.158
ExecutionTime = 19.8 s  ClockTime = 20 s

Region: air Courant Number mean: 0.0145991 max: 0.0984239
Region: solid Diffusion Number mean: 4.82586 max: 103.258
deltaT = 0.000909091
Time = 0.03

diagonal:  Solving for rho, Initial residual = 0, Final residual = 0, No Iterations 0
DILUPBiCGStab:  Solving for Ux, Initial residual = 0.00785306, Final residual = 5.8299e-08, No Iterations 3
DILUPBiCGStab:  Solving for Uy, Initial residual = 0.0135773, Final residual = 1.52597e-08, No Iterations 4
DILUPBiCGStab:  Solving for Uz, Initial residual = 0.00774263, Final residual = 6.5534e-08, No Iterations 3
DILUPBiCGStab:  Solving for h, Initial residual = 0.00827268, Final residual = 3.05596e-08, No Iterations 4
Min/max T:273.15 299.728

Solving for fluid region air
DICPCG:  Solving for p_rgh, Initial residual = 0.00805143, Final residual = 5.46072e-05, No Iterations 19
DICPCG:  Solving for p_rgh, Initial residual = 0.00171267, Final residual = 1.65186e-05, No Iterations 23
diagonal:  Solving for rho, Initial residual = 0, Final residual = 0, No Iterations 0
time step continuity errors (air): sum local = 5.66863e-08, global = 1.40411e-08, cumulative = -1.88745e-06
DICPCG:  Solving for p_rgh, Initial residual = 0.00470087, Final residual = 3.87252e-05, No Iterations 35
DICPCG:  Solving for p_rgh, Initial residual = 0.00106667, Final residual = 8.16529e-08, No Iterations 58
diagonal:  Solving for rho, Initial residual = 0, Final residual = 0, No Iterations 0
time step continuity errors (air): sum local = 6.64531e-10, global = 1.60283e-12, cumulative = -1.88745e-06

Solving for solid region solid
DICPCG:  Solving for h, Initial residual = 0.0367357, Final residual = 5.30244e-07, No Iterations 14
Min/max T:283.154 283.158
ExecutionTime = 20.4 s  ClockTime = 21 s

    min/max/integ(air_to_solid) = -460.506, 288.638, -0.0646434
wallHeatFlux HeatFlux_air write:
    writing field wallHeatFlux
    min/max/integ(solid_to_air) = -288.641, 460.482, 0.0646362
wallHeatFlux HeatFlux_solid write:
    writing field wallHeatFlux
Region: air Courant Number mean: 0.0146531 max: 0.0988469
Region: solid Diffusion Number mean: 4.82586 max: 103.258
deltaT = 0.000909091
Time = 0.0309091

diagonal:  Solving for rho, Initial residual = 0, Final residual = 0, No Iterations 0
DILUPBiCGStab:  Solving for Ux, Initial residual = 0.00749517, Final residual = 5.52912e-08, No Iterations 3
DILUPBiCGStab:  Solving for Uy, Initial residual = 0.0129737, Final residual = 1.45848e-08, No Iterations 4
DILUPBiCGStab:  Solving for Uz, Initial residual = 0.00740233, Final residual = 6.26961e-08, No Iterations 3
DILUPBiCGStab:  Solving for h, Initial residual = 0.00812461, Final residual = 2.95306e-08, No Iterations 4
Min/max T:273.15 299.698

Solving for fluid region air
DICPCG:  Solving for p_rgh, Initial residual = 0.00781294, Final residual = 5.42846e-05, No Iterations 19
DICPCG:  Solving for p_rgh, Initial residual = 0.00166561, Final residual = 1.66256e-05, No Iterations 25
diagonal:  Solving for rho, Initial residual = 0, Final residual = 0, No Iterations 0
time step continuity errors (air): sum local = 5.65852e-08, global = 1.16886e-08, cumulative = -1.87576e-06
DICPCG:  Solving for p_rgh, Initial residual = 0.00457388, Final residual = 3.79576e-05, No Iterations 35
DICPCG:  Solving for p_rgh, Initial residual = 0.0010378, Final residual = 7.92618e-08, No Iterations 58
diagonal:  Solving for rho, Initial residual = 0, Final residual = 0, No Iterations 0
time step continuity errors (air): sum local = 6.60109e-10, global = 4.01787e-12, cumulative = -1.87575e-06

Solving for solid region solid
DICPCG:  Solving for h, Initial residual = 0.0365127, Final residual = 5.25707e-07, No Iterations 14
Min/max T:283.154 283.158
ExecutionTime = 20.99 s  ClockTime = 21 s

Region: air Courant Number mean: 0.0147102 max: 0.0992131
Region: solid Diffusion Number mean: 4.82586 max: 103.258
deltaT = 0.000909091
Time = 0.0318182

diagonal:  Solving for rho, Initial residual = 0, Final residual = 0, No Iterations 0
DILUPBiCGStab:  Solving for Ux, Initial residual = 0.00716711, Final residual = 5.25172e-08, No Iterations 3
DILUPBiCGStab:  Solving for Uy, Initial residual = 0.0123963, Final residual = 9.85704e-08, No Iterations 3
DILUPBiCGStab:  Solving for Uz, Initial residual = 0.00705667, Final residual = 5.9511e-08, No Iterations 3
DILUPBiCGStab:  Solving for h, Initial residual = 0.00798362, Final residual = 2.85734e-08, No Iterations 4
Min/max T:273.15 299.666

Solving for fluid region air
DICPCG:  Solving for p_rgh, Initial residual = 0.0075271, Final residual = 5.58055e-05, No Iterations 19
DICPCG:  Solving for p_rgh, Initial residual = 0.00162355, Final residual = 1.59575e-05, No Iterations 29
diagonal:  Solving for rho, Initial residual = 0, Final residual = 0, No Iterations 0
time step continuity errors (air): sum local = 5.38847e-08, global = 7.08177e-09, cumulative = -1.86867e-06
DICPCG:  Solving for p_rgh, Initial residual = 0.00445656, Final residual = 4.25952e-05, No Iterations 31
DICPCG:  Solving for p_rgh, Initial residual = 0.00101024, Final residual = 7.41648e-08, No Iterations 58
diagonal:  Solving for rho, Initial residual = 0, Final residual = 0, No Iterations 0
time step continuity errors (air): sum local = 6.51423e-10, global = 4.08583e-12, cumulative = -1.86867e-06

Solving for solid region solid
DICPCG:  Solving for h, Initial residual = 0.0362846, Final residual = 5.21213e-07, No Iterations 14
Min/max T:283.154 283.158
ExecutionTime = 21.59 s  ClockTime = 22 s

Region: air Courant Number mean: 0.0147691 max: 0.0995245
Region: solid Diffusion Number mean: 4.82586 max: 103.258
deltaT = 0.000909091
Time = 0.0327273

diagonal:  Solving for rho, Initial residual = 0, Final residual = 0, No Iterations 0
DILUPBiCGStab:  Solving for Ux, Initial residual = 0.00686317, Final residual = 4.99386e-08, No Iterations 3
DILUPBiCGStab:  Solving for Uy, Initial residual = 0.011856, Final residual = 9.389e-08, No Iterations 3
DILUPBiCGStab:  Solving for Uz, Initial residual = 0.00673621, Final residual = 5.66862e-08, No Iterations 3
DILUPBiCGStab:  Solving for h, Initial residual = 0.00784914, Final residual = 2.768e-08, No Iterations 4
Min/max T:273.15 299.632

Solving for fluid region air
DICPCG:  Solving for p_rgh, Initial residual = 0.00727503, Final residual = 5.64825e-05, No Iterations 19
DICPCG:  Solving for p_rgh, Initial residual = 0.00158264, Final residual = 1.57537e-05, No Iterations 30
diagonal:  Solving for rho, Initial residual = 0, Final residual = 0, No Iterations 0
time step continuity errors (air): sum local = 5.27772e-08, global = 4.60314e-09, cumulative = -1.86406e-06
DICPCG:  Solving for p_rgh, Initial residual = 0.00434404, Final residual = 4.05217e-05, No Iterations 31
DICPCG:  Solving for p_rgh, Initial residual = 0.000985001, Final residual = 7.2174e-08, No Iterations 58
diagonal:  Solving for rho, Initial residual = 0, Final residual = 0, No Iterations 0
time step continuity errors (air): sum local = 6.45462e-10, global = 2.11764e-12, cumulative = -1.86406e-06

Solving for solid region solid
DICPCG:  Solving for h, Initial residual = 0.0360493, Final residual = 5.16736e-07, No Iterations 14
Min/max T:283.154 283.158
ExecutionTime = 22.13 s  ClockTime = 22 s

Region: air Courant Number mean: 0.0148287 max: 0.0997826
Region: solid Diffusion Number mean: 4.82586 max: 103.258
deltaT = 0.000909091
Time = 0.0336364

diagonal:  Solving for rho, Initial residual = 0, Final residual = 0, No Iterations 0
DILUPBiCGStab:  Solving for Ux, Initial residual = 0.00658149, Final residual = 4.75993e-08, No Iterations 3
DILUPBiCGStab:  Solving for Uy, Initial residual = 0.0113518, Final residual = 8.95989e-08, No Iterations 3
DILUPBiCGStab:  Solving for Uz, Initial residual = 0.0064726, Final residual = 5.46535e-08, No Iterations 3
DILUPBiCGStab:  Solving for h, Initial residual = 0.00772058, Final residual = 2.68441e-08, No Iterations 4
Min/max T:273.15 299.597

Solving for fluid region air
DICPCG:  Solving for p_rgh, Initial residual = 0.00711116, Final residual = 5.7223e-05, No Iterations 19
DICPCG:  Solving for p_rgh, Initial residual = 0.00154417, Final residual = 1.4076e-05, No Iterations 34
diagonal:  Solving for rho, Initial residual = 0, Final residual = 0, No Iterations 0
time step continuity errors (air): sum local = 4.67947e-08, global = 1.4797e-09, cumulative = -1.86258e-06
DICPCG:  Solving for p_rgh, Initial residual = 0.00423856, Final residual = 3.90016e-05, No Iterations 25
DICPCG:  Solving for p_rgh, Initial residual = 0.000960469, Final residual = 8.7739e-08, No Iterations 49
diagonal:  Solving for rho, Initial residual = 0, Final residual = 0, No Iterations 0
time step continuity errors (air): sum local = 6.3433e-10, global = 3.01048e-12, cumulative = -1.86258e-06

Solving for solid region solid
DICPCG:  Solving for h, Initial residual = 0.0358064, Final residual = 5.12252e-07, No Iterations 14
Min/max T:283.154 283.158
ExecutionTime = 22.66 s  ClockTime = 23 s

Region: air Courant Number mean: 0.0148885 max: 0.0999906
Region: solid Diffusion Number mean: 4.82586 max: 103.258
deltaT = 0.000909091
Time = 0.0345455

diagonal:  Solving for rho, Initial residual = 0, Final residual = 0, No Iterations 0
DILUPBiCGStab:  Solving for Ux, Initial residual = 0.00632027, Final residual = 4.53929e-08, No Iterations 3
DILUPBiCGStab:  Solving for Uy, Initial residual = 0.0108824, Final residual = 8.56165e-08, No Iterations 3
DILUPBiCGStab:  Solving for Uz, Initial residual = 0.00619558, Final residual = 5.20865e-08, No Iterations 3
DILUPBiCGStab:  Solving for h, Initial residual = 0.00759737, Final residual = 2.606e-08, No Iterations 4
Min/max T:273.15 299.56

Solving for fluid region air
DICPCG:  Solving for p_rgh, Initial residual = 0.00684767, Final residual = 5.77088e-05, No Iterations 19
DICPCG:  Solving for p_rgh, Initial residual = 0.00150846, Final residual = 1.40956e-05, No Iterations 34
diagonal:  Solving for rho, Initial residual = 0, Final residual = 0, No Iterations 0
time step continuity errors (air): sum local = 4.64953e-08, global = 1.19636e-09, cumulative = -1.86138e-06
DICPCG:  Solving for p_rgh, Initial residual = 0.00413696, Final residual = 3.69491e-05, No Iterations 25
DICPCG:  Solving for p_rgh, Initial residual = 0.000937998, Final residual = 8.92403e-08, No Iterations 55
diagonal:  Solving for rho, Initial residual = 0, Final residual = 0, No Iterations 0
time step continuity errors (air): sum local = 6.6955e-10, global = 1.49823e-11, cumulative = -1.86137e-06

Solving for solid region solid
DICPCG:  Solving for h, Initial residual = 0.0355586, Final residual = 5.07783e-07, No Iterations 14
Min/max T:283.154 283.158
ExecutionTime = 23.18 s  ClockTime = 23 s

Region: air Courant Number mean: 0.0149473 max: 0.100151
Region: solid Diffusion Number mean: 4.82586 max: 103.258
deltaT = 0.000909091
Time = 0.0354545

diagonal:  Solving for rho, Initial residual = 0, Final residual = 0, No Iterations 0
DILUPBiCGStab:  Solving for Ux, Initial residual = 0.00607669, Final residual = 4.33886e-08, No Iterations 3
DILUPBiCGStab:  Solving for Uy, Initial residual = 0.0104265, Final residual = 8.17897e-08, No Iterations 3
DILUPBiCGStab:  Solving for Uz, Initial residual = 0.00593839, Final residual = 4.98135e-08, No Iterations 3
DILUPBiCGStab:  Solving for h, Initial residual = 0.00747909, Final residual = 2.53225e-08, No Iterations 4
Min/max T:273.15 299.521

Solving for fluid region air
DICPCG:  Solving for p_rgh, Initial residual = 0.00665149, Final residual = 5.8162e-05, No Iterations 19
DICPCG:  Solving for p_rgh, Initial residual = 0.00147449, Final residual = 1.42496e-05, No Iterations 34
diagonal:  Solving for rho, Initial residual = 0, Final residual = 0, No Iterations 0
time step continuity errors (air): sum local = 4.66392e-08, global = 1.12325e-09, cumulative = -1.86025e-06
DICPCG:  Solving for p_rgh, Initial residual = 0.00404224, Final residual = 3.56606e-05, No Iterations 25
DICPCG:  Solving for p_rgh, Initial residual = 0.000916734, Final residual = 9.53007e-08, No Iterations 55
diagonal:  Solving for rho, Initial residual = 0, Final residual = 0, No Iterations 0
time step continuity errors (air): sum local = 6.70395e-10, global = 1.39847e-11, cumulative = -1.86023e-06

Solving for solid region solid
DICPCG:  Solving for h, Initial residual = 0.0353038, Final residual = 5.03326e-07, No Iterations 14
Min/max T:283.154 283.158
ExecutionTime = 23.74 s  ClockTime = 24 s

Region: air Courant Number mean: 0.0150048 max: 0.100265
Region: solid Diffusion Number mean: 4.82586 max: 103.258
deltaT = 0.000909091
Time = 0.0363636

diagonal:  Solving for rho, Initial residual = 0, Final residual = 0, No Iterations 0
DILUPBiCGStab:  Solving for Ux, Initial residual = 0.00584935, Final residual = 4.15316e-08, No Iterations 3
DILUPBiCGStab:  Solving for Uy, Initial residual = 0.0100041, Final residual = 7.82211e-08, No Iterations 3
DILUPBiCGStab:  Solving for Uz, Initial residual = 0.00571454, Final residual = 4.79859e-08, No Iterations 3
DILUPBiCGStab:  Solving for h, Initial residual = 0.00736535, Final residual = 2.46273e-08, No Iterations 4
Min/max T:273.15 299.481

Solving for fluid region air
DICPCG:  Solving for p_rgh, Initial residual = 0.00649911, Final residual = 5.82882e-05, No Iterations 19
DICPCG:  Solving for p_rgh, Initial residual = 0.00144294, Final residual = 1.41988e-05, No Iterations 34
diagonal:  Solving for rho, Initial residual = 0, Final residual = 0, No Iterations 0
time step continuity errors (air): sum local = 4.61308e-08, global = 1.03321e-09, cumulative = -1.8592e-06
DICPCG:  Solving for p_rgh, Initial residual = 0.00395228, Final residual = 3.45544e-05, No Iterations 25
DICPCG:  Solving for p_rgh, Initial residual = 0.000896503, Final residual = 9.87057e-08, No Iterations 55
diagonal:  Solving for rho, Initial residual = 0, Final residual = 0, No Iterations 0
time step continuity errors (air): sum local = 6.80717e-10, global = 1.2881e-11, cumulative = -1.85919e-06

Solving for solid region solid
DICPCG:  Solving for h, Initial residual = 0.0350405, Final residual = 4.9882e-07, No Iterations 14
Min/max T:283.154 283.159
ExecutionTime = 24.28 s  ClockTime = 25 s

Region: air Courant Number mean: 0.0150605 max: 0.100335
Region: solid Diffusion Number mean: 4.82586 max: 103.258
deltaT = 0.000909091
Time = 0.0372727

diagonal:  Solving for rho, Initial residual = 0, Final residual = 0, No Iterations 0
DILUPBiCGStab:  Solving for Ux, Initial residual = 0.0056379, Final residual = 3.98141e-08, No Iterations 3
DILUPBiCGStab:  Solving for Uy, Initial residual = 0.00961156, Final residual = 7.48966e-08, No Iterations 3
DILUPBiCGStab:  Solving for Uz, Initial residual = 0.00550443, Final residual = 4.62085e-08, No Iterations 3
DILUPBiCGStab:  Solving for h, Initial residual = 0.00725573, Final residual = 2.39704e-08, No Iterations 4
Min/max T:273.15 299.439

Solving for fluid region air
DICPCG:  Solving for p_rgh, Initial residual = 0.006332, Final residual = 5.88233e-05, No Iterations 19
DICPCG:  Solving for p_rgh, Initial residual = 0.00141265, Final residual = 1.41202e-05, No Iterations 34
diagonal:  Solving for rho, Initial residual = 0, Final residual = 0, No Iterations 0
time step continuity errors (air): sum local = 4.55457e-08, global = 9.14882e-10, cumulative = -1.85827e-06
DICPCG:  Solving for p_rgh, Initial residual = 0.00386559, Final residual = 3.32061e-05, No Iterations 25
DICPCG:  Solving for p_rgh, Initial residual = 0.000876973, Final residual = 8.80061e-08, No Iterations 56
diagonal:  Solving for rho, Initial residual = 0, Final residual = 0, No Iterations 0
time step continuity errors (air): sum local = 6.62587e-10, global = 1.18428e-11, cumulative = -1.85826e-06

Solving for solid region solid
DICPCG:  Solving for h, Initial residual = 0.0347695, Final residual = 4.94295e-07, No Iterations 14
Min/max T:283.154 283.159
ExecutionTime = 24.81 s  ClockTime = 25 s

Region: air Courant Number mean: 0.0151139 max: 0.100381
Region: solid Diffusion Number mean: 4.82586 max: 103.258
deltaT = 0.000909091
Time = 0.0381818

diagonal:  Solving for rho, Initial residual = 0, Final residual = 0, No Iterations 0
DILUPBiCGStab:  Solving for Ux, Initial residual = 0.00544181, Final residual = 3.82111e-08, No Iterations 3
DILUPBiCGStab:  Solving for Uy, Initial residual = 0.00924124, Final residual = 7.17577e-08, No Iterations 3
DILUPBiCGStab:  Solving for Uz, Initial residual = 0.0052975, Final residual = 4.42223e-08, No Iterations 3
DILUPBiCGStab:  Solving for h, Initial residual = 0.00714999, Final residual = 2.3349e-08, No Iterations 4
Min/max T:273.15 299.395

Solving for fluid region air
DICPCG:  Solving for p_rgh, Initial residual = 0.00615031, Final residual = 5.92162e-05, No Iterations 19
DICPCG:  Solving for p_rgh, Initial residual = 0.00138419, Final residual = 1.34571e-05, No Iterations 35
diagonal:  Solving for rho, Initial residual = 0, Final residual = 0, No Iterations 0
time step continuity errors (air): sum local = 4.30748e-08, global = 1.03453e-09, cumulative = -1.85722e-06
DICPCG:  Solving for p_rgh, Initial residual = 0.00378473, Final residual = 3.18775e-05, No Iterations 25
DICPCG:  Solving for p_rgh, Initial residual = 0.000858844, Final residual = 8.94325e-08, No Iterations 56
diagonal:  Solving for rho, Initial residual = 0, Final residual = 0, No Iterations 0
time step continuity errors (air): sum local = 6.64643e-10, global = 1.49785e-11, cumulative = -1.85721e-06

Solving for solid region solid
DICPCG:  Solving for h, Initial residual = 0.034492, Final residual = 4.89749e-07, No Iterations 14
Min/max T:283.154 283.159
ExecutionTime = 25.33 s  ClockTime = 26 s

Region: air Courant Number mean: 0.0151645 max: 0.100386
Region: solid Diffusion Number mean: 4.82586 max: 103.258
deltaT = 0.000909091
Time = 0.0390909

diagonal:  Solving for rho, Initial residual = 0, Final residual = 0, No Iterations 0
DILUPBiCGStab:  Solving for Ux, Initial residual = 0.00525742, Final residual = 3.67001e-08, No Iterations 3
DILUPBiCGStab:  Solving for Uy, Initial residual = 0.00889095, Final residual = 6.87906e-08, No Iterations 3
DILUPBiCGStab:  Solving for Uz, Initial residual = 0.00510856, Final residual = 4.2458e-08, No Iterations 3
DILUPBiCGStab:  Solving for h, Initial residual = 0.00704783, Final residual = 2.27601e-08, No Iterations 4
Min/max T:273.15 299.35

Solving for fluid region air
DICPCG:  Solving for p_rgh, Initial residual = 0.00599897, Final residual = 5.931e-05, No Iterations 19
DICPCG:  Solving for p_rgh, Initial residual = 0.00135592, Final residual = 1.3343e-05, No Iterations 35
diagonal:  Solving for rho, Initial residual = 0, Final residual = 0, No Iterations 0
time step continuity errors (air): sum local = 4.24003e-08, global = 9.96833e-10, cumulative = -1.85621e-06
DICPCG:  Solving for p_rgh, Initial residual = 0.00370685, Final residual = 3.09087e-05, No Iterations 25
DICPCG:  Solving for p_rgh, Initial residual = 0.000841421, Final residual = 9.01824e-08, No Iterations 56
diagonal:  Solving for rho, Initial residual = 0, Final residual = 0, No Iterations 0
time step continuity errors (air): sum local = 6.54333e-10, global = 1.50784e-11, cumulative = -1.8562e-06

[...]

Solving for solid region solid
DICPCG:  Solving for h, Initial residual = 0.0151303, Final residual = 4.47148e-07, No Iterations 13
Min/max T:283.156 283.162
ExecutionTime = 56.98 s  ClockTime = 58 s

    min/max/integ(air_to_solid) = -350.718, 345.324, -0.0232828
wallHeatFlux HeatFlux_air write:
    writing field wallHeatFlux
    min/max/integ(solid_to_air) = -345.333, 350.699, 0.0232796
wallHeatFlux HeatFlux_solid write:
    writing field wallHeatFlux
Region: air Courant Number mean: 0.0149994 max: 0.0792207
Region: solid Diffusion Number mean: 4.82586 max: 103.258
deltaT = 0.000909091
Time = 0.0909091

diagonal:  Solving for rho, Initial residual = 0, Final residual = 0, No Iterations 0
DILUPBiCGStab:  Solving for Ux, Initial residual = 0.00182097, Final residual = 9.05855e-08, No Iterations 3
DILUPBiCGStab:  Solving for Uy, Initial residual = 0.00433197, Final residual = 2.8243e-08, No Iterations 3
DILUPBiCGStab:  Solving for Uz, Initial residual = 0.00315753, Final residual = 1.96834e-08, No Iterations 3
DILUPBiCGStab:  Solving for h, Initial residual = 0.00373048, Final residual = 8.31049e-08, No Iterations 3
Min/max T:273.15 295.704

Solving for fluid region air
DICPCG:  Solving for p_rgh, Initial residual = 0.00252964, Final residual = 1.95165e-05, No Iterations 35
DICPCG:  Solving for p_rgh, Initial residual = 0.000624829, Final residual = 5.95068e-06, No Iterations 15
diagonal:  Solving for rho, Initial residual = 0, Final residual = 0, No Iterations 0
time step continuity errors (air): sum local = 1.43892e-08, global = -1.65182e-09, cumulative = -1.89178e-06
DICPCG:  Solving for p_rgh, Initial residual = 0.00164133, Final residual = 1.41392e-05, No Iterations 23
DICPCG:  Solving for p_rgh, Initial residual = 0.000373235, Final residual = 7.64476e-08, No Iterations 54
diagonal:  Solving for rho, Initial residual = 0, Final residual = 0, No Iterations 0
time step continuity errors (air): sum local = 5.99697e-10, global = 1.5543e-11, cumulative = -1.89176e-06

Solving for solid region solid
DICPCG:  Solving for h, Initial residual = 0.0148841, Final residual = 4.4005e-07, No Iterations 13
Min/max T:283.156 283.162
ExecutionTime = 57.59 s  ClockTime = 58 s

Region: air Courant Number mean: 0.0149748 max: 0.0788369
Region: solid Diffusion Number mean: 4.82586 max: 103.258
deltaT = 0.000909091
Time = 0.0918182

diagonal:  Solving for rho, Initial residual = 0, Final residual = 0, No Iterations 0
DILUPBiCGStab:  Solving for Ux, Initial residual = 0.00179869, Final residual = 8.93941e-08, No Iterations 3
DILUPBiCGStab:  Solving for Uy, Initial residual = 0.00431978, Final residual = 2.80029e-08, No Iterations 3
DILUPBiCGStab:  Solving for Uz, Initial residual = 0.00312991, Final residual = 1.9335e-08, No Iterations 3
DILUPBiCGStab:  Solving for h, Initial residual = 0.00369352, Final residual = 8.20924e-08, No Iterations 3
Min/max T:273.15 295.642

Solving for fluid region air
DICPCG:  Solving for p_rgh, Initial residual = 0.0024763, Final residual = 1.92887e-05, No Iterations 35
DICPCG:  Solving for p_rgh, Initial residual = 0.000617847, Final residual = 5.87271e-06, No Iterations 15
diagonal:  Solving for rho, Initial residual = 0, Final residual = 0, No Iterations 0
time step continuity errors (air): sum local = 1.41597e-08, global = -1.62372e-09, cumulative = -1.89339e-06
DICPCG:  Solving for p_rgh, Initial residual = 0.00162174, Final residual = 1.40032e-05, No Iterations 23
DICPCG:  Solving for p_rgh, Initial residual = 0.000368963, Final residual = 9.96882e-08, No Iterations 53
diagonal:  Solving for rho, Initial residual = 0, Final residual = 0, No Iterations 0
time step continuity errors (air): sum local = 6.2237e-10, global = 1.32446e-11, cumulative = -1.89337e-06

Solving for solid region solid
DICPCG:  Solving for h, Initial residual = 0.0146429, Final residual = 4.3309e-07, No Iterations 13
Min/max T:283.156 283.162
ExecutionTime = 58.16 s  ClockTime = 59 s

Region: air Courant Number mean: 0.01495 max: 0.0784541
Region: solid Diffusion Number mean: 4.82586 max: 103.258
deltaT = 0.000909091
Time = 0.0927273

diagonal:  Solving for rho, Initial residual = 0, Final residual = 0, No Iterations 0
DILUPBiCGStab:  Solving for Ux, Initial residual = 0.00177739, Final residual = 8.81495e-08, No Iterations 3
DILUPBiCGStab:  Solving for Uy, Initial residual = 0.0043038, Final residual = 2.77661e-08, No Iterations 3
DILUPBiCGStab:  Solving for Uz, Initial residual = 0.00310532, Final residual = 1.90686e-08, No Iterations 3
DILUPBiCGStab:  Solving for h, Initial residual = 0.00365698, Final residual = 8.10959e-08, No Iterations 3
Min/max T:273.15 295.58

Solving for fluid region air
DICPCG:  Solving for p_rgh, Initial residual = 0.00243959, Final residual = 1.91006e-05, No Iterations 35
DICPCG:  Solving for p_rgh, Initial residual = 0.000611035, Final residual = 5.80036e-06, No Iterations 15
diagonal:  Solving for rho, Initial residual = 0, Final residual = 0, No Iterations 0
time step continuity errors (air): sum local = 1.39339e-08, global = -1.6058e-09, cumulative = -1.89498e-06
DICPCG:  Solving for p_rgh, Initial residual = 0.00160296, Final residual = 1.38201e-05, No Iterations 23
DICPCG:  Solving for p_rgh, Initial residual = 0.000364739, Final residual = 9.86961e-08, No Iterations 53
diagonal:  Solving for rho, Initial residual = 0, Final residual = 0, No Iterations 0
time step continuity errors (air): sum local = 6.18355e-10, global = 1.69808e-11, cumulative = -1.89496e-06

Solving for solid region solid
DICPCG:  Solving for h, Initial residual = 0.0144065, Final residual = 4.26264e-07, No Iterations 13
Min/max T:283.156 283.162
ExecutionTime = 58.69 s  ClockTime = 60 s

Region: air Courant Number mean: 0.0149251 max: 0.0780724
Region: solid Diffusion Number mean: 4.82586 max: 103.258
deltaT = 0.000909091
Time = 0.0936364

diagonal:  Solving for rho, Initial residual = 0, Final residual = 0, No Iterations 0
DILUPBiCGStab:  Solving for Ux, Initial residual = 0.00175683, Final residual = 8.69194e-08, No Iterations 3
DILUPBiCGStab:  Solving for Uy, Initial residual = 0.00428713, Final residual = 2.75372e-08, No Iterations 3
DILUPBiCGStab:  Solving for Uz, Initial residual = 0.00308222, Final residual = 1.88579e-08, No Iterations 3
DILUPBiCGStab:  Solving for h, Initial residual = 0.00362087, Final residual = 8.01158e-08, No Iterations 3
Min/max T:273.15 295.519

Solving for fluid region air
DICPCG:  Solving for p_rgh, Initial residual = 0.00240763, Final residual = 1.89125e-05, No Iterations 35
DICPCG:  Solving for p_rgh, Initial residual = 0.000604378, Final residual = 5.73142e-06, No Iterations 15
diagonal:  Solving for rho, Initial residual = 0, Final residual = 0, No Iterations 0
time step continuity errors (air): sum local = 1.37284e-08, global = -1.59068e-09, cumulative = -1.89655e-06
DICPCG:  Solving for p_rgh, Initial residual = 0.0015848, Final residual = 1.36453e-05, No Iterations 23
DICPCG:  Solving for p_rgh, Initial residual = 0.000360633, Final residual = 9.78034e-08, No Iterations 53
diagonal:  Solving for rho, Initial residual = 0, Final residual = 0, No Iterations 0
time step continuity errors (air): sum local = 6.17741e-10, global = 1.78515e-11, cumulative = -1.89653e-06

Solving for solid region solid
DICPCG:  Solving for h, Initial residual = 0.0141748, Final residual = 4.19571e-07, No Iterations 13
Min/max T:283.156 283.162
ExecutionTime = 59.2 s  ClockTime = 60 s

Region: air Courant Number mean: 0.0149001 max: 0.0776919
Region: solid Diffusion Number mean: 4.82586 max: 103.258
deltaT = 0.000909091
Time = 0.0945455

diagonal:  Solving for rho, Initial residual = 0, Final residual = 0, No Iterations 0
DILUPBiCGStab:  Solving for Ux, Initial residual = 0.00173676, Final residual = 8.57046e-08, No Iterations 3
DILUPBiCGStab:  Solving for Uy, Initial residual = 0.00427066, Final residual = 2.73138e-08, No Iterations 3
DILUPBiCGStab:  Solving for Uz, Initial residual = 0.00305994, Final residual = 1.86787e-08, No Iterations 3
DILUPBiCGStab:  Solving for h, Initial residual = 0.00358516, Final residual = 7.91508e-08, No Iterations 3
Min/max T:273.15 295.458

Solving for fluid region air
DICPCG:  Solving for p_rgh, Initial residual = 0.00237605, Final residual = 1.87428e-05, No Iterations 35
DICPCG:  Solving for p_rgh, Initial residual = 0.000597805, Final residual = 5.675e-06, No Iterations 15
diagonal:  Solving for rho, Initial residual = 0, Final residual = 0, No Iterations 0
time step continuity errors (air): sum local = 1.35557e-08, global = -1.57477e-09, cumulative = -1.89811e-06
DICPCG:  Solving for p_rgh, Initial residual = 0.00156687, Final residual = 1.34583e-05, No Iterations 23
DICPCG:  Solving for p_rgh, Initial residual = 0.000356567, Final residual = 9.69537e-08, No Iterations 53
diagonal:  Solving for rho, Initial residual = 0, Final residual = 0, No Iterations 0
time step continuity errors (air): sum local = 6.15643e-10, global = 1.26793e-11, cumulative = -1.8981e-06

Solving for solid region solid
DICPCG:  Solving for h, Initial residual = 0.0139476, Final residual = 4.13e-07, No Iterations 13
Min/max T:283.156 283.162
ExecutionTime = 59.7 s  ClockTime = 61 s

Region: air Courant Number mean: 0.0148751 max: 0.0773128
Region: solid Diffusion Number mean: 4.82586 max: 103.258
deltaT = 0.000909091
Time = 0.0954545

diagonal:  Solving for rho, Initial residual = 0, Final residual = 0, No Iterations 0
DILUPBiCGStab:  Solving for Ux, Initial residual = 0.00172241, Final residual = 8.43627e-08, No Iterations 3
DILUPBiCGStab:  Solving for Uy, Initial residual = 0.00426478, Final residual = 2.71898e-08, No Iterations 3
DILUPBiCGStab:  Solving for Uz, Initial residual = 0.00306157, Final residual = 1.90633e-08, No Iterations 3
DILUPBiCGStab:  Solving for h, Initial residual = 0.00354981, Final residual = 7.81998e-08, No Iterations 3
Min/max T:273.15 295.396

Solving for fluid region air
DICPCG:  Solving for p_rgh, Initial residual = 0.00244581, Final residual = 1.86935e-05, No Iterations 35
DICPCG:  Solving for p_rgh, Initial residual = 0.000591339, Final residual = 5.63126e-06, No Iterations 15
diagonal:  Solving for rho, Initial residual = 0, Final residual = 0, No Iterations 0
time step continuity errors (air): sum local = 1.34175e-08, global = -1.55249e-09, cumulative = -1.89965e-06
DICPCG:  Solving for p_rgh, Initial residual = 0.00155133, Final residual = 1.31724e-05, No Iterations 23
DICPCG:  Solving for p_rgh, Initial residual = 0.000352253, Final residual = 9.71166e-08, No Iterations 53
diagonal:  Solving for rho, Initial residual = 0, Final residual = 0, No Iterations 0
time step continuity errors (air): sum local = 6.21875e-10, global = 1.74657e-11, cumulative = -1.89963e-06

Solving for solid region solid
DICPCG:  Solving for h, Initial residual = 0.0137247, Final residual = 4.0655e-07, No Iterations 13
Min/max T:283.156 283.162
ExecutionTime = 60.22 s  ClockTime = 61 s

Region: air Courant Number mean: 0.0148501 max: 0.0769341
Region: solid Diffusion Number mean: 4.82586 max: 103.258
deltaT = 0.000909091
Time = 0.0963636

diagonal:  Solving for rho, Initial residual = 0, Final residual = 0, No Iterations 0
DILUPBiCGStab:  Solving for Ux, Initial residual = 0.00170119, Final residual = 8.34837e-08, No Iterations 3
DILUPBiCGStab:  Solving for Uy, Initial residual = 0.00424992, Final residual = 2.69122e-08, No Iterations 3
DILUPBiCGStab:  Solving for Uz, Initial residual = 0.00302872, Final residual = 1.86525e-08, No Iterations 3
DILUPBiCGStab:  Solving for h, Initial residual = 0.00351482, Final residual = 7.7263e-08, No Iterations 3
Min/max T:273.15 295.335

Solving for fluid region air
DICPCG:  Solving for p_rgh, Initial residual = 0.00234499, Final residual = 1.84612e-05, No Iterations 35
DICPCG:  Solving for p_rgh, Initial residual = 0.000585033, Final residual = 5.58877e-06, No Iterations 15
diagonal:  Solving for rho, Initial residual = 0, Final residual = 0, No Iterations 0
time step continuity errors (air): sum local = 1.32773e-08, global = -1.56433e-09, cumulative = -1.9012e-06
DICPCG:  Solving for p_rgh, Initial residual = 0.00153198, Final residual = 1.29343e-05, No Iterations 23
DICPCG:  Solving for p_rgh, Initial residual = 0.000348516, Final residual = 9.59651e-08, No Iterations 53
diagonal:  Solving for rho, Initial residual = 0, Final residual = 0, No Iterations 0
time step continuity errors (air): sum local = 6.14301e-10, global = 1.78857e-11, cumulative = -1.90118e-06

Solving for solid region solid
DICPCG:  Solving for h, Initial residual = 0.0135062, Final residual = 4.00224e-07, No Iterations 13
Min/max T:283.156 283.163
ExecutionTime = 60.72 s  ClockTime = 62 s

Region: air Courant Number mean: 0.014825 max: 0.0765557
Region: solid Diffusion Number mean: 4.82586 max: 103.258
deltaT = 0.000909091
Time = 0.0972727

diagonal:  Solving for rho, Initial residual = 0, Final residual = 0, No Iterations 0
DILUPBiCGStab:  Solving for Ux, Initial residual = 0.00169033, Final residual = 8.19377e-08, No Iterations 3
DILUPBiCGStab:  Solving for Uy, Initial residual = 0.00424505, Final residual = 2.67636e-08, No Iterations 3
DILUPBiCGStab:  Solving for Uz, Initial residual = 0.00303078, Final residual = 1.90906e-08, No Iterations 3
DILUPBiCGStab:  Solving for h, Initial residual = 0.00348019, Final residual = 7.63397e-08, No Iterations 3
Min/max T:273.15 295.275

Solving for fluid region air
DICPCG:  Solving for p_rgh, Initial residual = 0.00242724, Final residual = 1.8446e-05, No Iterations 35
DICPCG:  Solving for p_rgh, Initial residual = 0.000580491, Final residual = 5.65627e-06, No Iterations 15
diagonal:  Solving for rho, Initial residual = 0, Final residual = 0, No Iterations 0
time step continuity errors (air): sum local = 1.3406e-08, global = -1.54731e-09, cumulative = -1.90273e-06
DICPCG:  Solving for p_rgh, Initial residual = 0.00152372, Final residual = 1.5056e-05, No Iterations 22
DICPCG:  Solving for p_rgh, Initial residual = 0.000345591, Final residual = 9.30438e-08, No Iterations 53
diagonal:  Solving for rho, Initial residual = 0, Final residual = 0, No Iterations 0
time step continuity errors (air): sum local = 6.13533e-10, global = 1.00181e-11, cumulative = -1.90272e-06

Solving for solid region solid
DICPCG:  Solving for h, Initial residual = 0.013292, Final residual = 3.94019e-07, No Iterations 13
Min/max T:283.156 283.163
ExecutionTime = 61.23 s  ClockTime = 62 s

Region: air Courant Number mean: 0.0148001 max: 0.0761789
Region: solid Diffusion Number mean: 4.82586 max: 103.258
deltaT = 0.000909091
Time = 0.0981818

diagonal:  Solving for rho, Initial residual = 0, Final residual = 0, No Iterations 0
DILUPBiCGStab:  Solving for Ux, Initial residual = 0.00166568, Final residual = 8.13512e-08, No Iterations 3
DILUPBiCGStab:  Solving for Uy, Initial residual = 0.00423529, Final residual = 2.65439e-08, No Iterations 3
DILUPBiCGStab:  Solving for Uz, Initial residual = 0.00299389, Final residual = 1.85664e-08, No Iterations 3
DILUPBiCGStab:  Solving for h, Initial residual = 0.00344589, Final residual = 7.54292e-08, No Iterations 3
Min/max T:273.15 295.214

Solving for fluid region air
DICPCG:  Solving for p_rgh, Initial residual = 0.00230131, Final residual = 1.81639e-05, No Iterations 35
DICPCG:  Solving for p_rgh, Initial residual = 0.000572435, Final residual = 5.49291e-06, No Iterations 15
diagonal:  Solving for rho, Initial residual = 0, Final residual = 0, No Iterations 0
time step continuity errors (air): sum local = 1.29756e-08, global = -1.5326e-09, cumulative = -1.90425e-06
DICPCG:  Solving for p_rgh, Initial residual = 0.0014986, Final residual = 1.49225e-05, No Iterations 22
DICPCG:  Solving for p_rgh, Initial residual = 0.000341507, Final residual = 9.1185e-08, No Iterations 53
diagonal:  Solving for rho, Initial residual = 0, Final residual = 0, No Iterations 0
time step continuity errors (air): sum local = 6.08684e-10, global = 1.20979e-11, cumulative = -1.90424e-06

Solving for solid region solid
DICPCG:  Solving for h, Initial residual = 0.0130821, Final residual = 3.87934e-07, No Iterations 13
Min/max T:283.156 283.163
ExecutionTime = 61.73 s  ClockTime = 63 s

Region: air Courant Number mean: 0.0147751 max: 0.0758036
Region: solid Diffusion Number mean: 4.82586 max: 103.258
deltaT = 0.000909091
Time = 0.0990909

diagonal:  Solving for rho, Initial residual = 0, Final residual = 0, No Iterations 0
DILUPBiCGStab:  Solving for Ux, Initial residual = 0.00164608, Final residual = 8.03316e-08, No Iterations 3
DILUPBiCGStab:  Solving for Uy, Initial residual = 0.00421898, Final residual = 2.63e-08, No Iterations 3
DILUPBiCGStab:  Solving for Uz, Initial residual = 0.00296519, Final residual = 1.82489e-08, No Iterations 3
DILUPBiCGStab:  Solving for h, Initial residual = 0.00341193, Final residual = 7.45316e-08, No Iterations 3
Min/max T:273.15 295.154

Solving for fluid region air
DICPCG:  Solving for p_rgh, Initial residual = 0.00225284, Final residual = 1.79494e-05, No Iterations 35
DICPCG:  Solving for p_rgh, Initial residual = 0.000566081, Final residual = 5.41453e-06, No Iterations 15
diagonal:  Solving for rho, Initial residual = 0, Final residual = 0, No Iterations 0
time step continuity errors (air): sum local = 1.27554e-08, global = -1.50547e-09, cumulative = -1.90574e-06
DICPCG:  Solving for p_rgh, Initial residual = 0.00148089, Final residual = 1.2427e-05, No Iterations 23
DICPCG:  Solving for p_rgh, Initial residual = 0.00033683, Final residual = 9.34289e-08, No Iterations 53
diagonal:  Solving for rho, Initial residual = 0, Final residual = 0, No Iterations 0
time step continuity errors (air): sum local = 6.09809e-10, global = 1.43777e-11, cumulative = -1.90573e-06

Solving for solid region solid
DICPCG:  Solving for h, Initial residual = 0.0128765, Final residual = 3.8197e-07, No Iterations 13
Min/max T:283.156 283.163
ExecutionTime = 62.27 s  ClockTime = 63 s

Region: air Courant Number mean: 0.01475 max: 0.0754301
Region: solid Diffusion Number mean: 4.82586 max: 103.258
deltaT = 0.000909091
Time = 0.1

diagonal:  Solving for rho, Initial residual = 0, Final residual = 0, No Iterations 0
DILUPBiCGStab:  Solving for Ux, Initial residual = 0.00162735, Final residual = 7.92796e-08, No Iterations 3
DILUPBiCGStab:  Solving for Uy, Initial residual = 0.00420044, Final residual = 2.60617e-08, No Iterations 3
DILUPBiCGStab:  Solving for Uz, Initial residual = 0.00293918, Final residual = 1.80041e-08, No Iterations 3
DILUPBiCGStab:  Solving for h, Initial residual = 0.00337831, Final residual = 7.3647e-08, No Iterations 3
Min/max T:273.15 295.094

Solving for fluid region air
DICPCG:  Solving for p_rgh, Initial residual = 0.00221834, Final residual = 1.77733e-05, No Iterations 35
DICPCG:  Solving for p_rgh, Initial residual = 0.000559962, Final residual = 5.34826e-06, No Iterations 15
diagonal:  Solving for rho, Initial residual = 0, Final residual = 0, No Iterations 0
time step continuity errors (air): sum local = 1.25656e-08, global = -1.48644e-09, cumulative = -1.90721e-06
DICPCG:  Solving for p_rgh, Initial residual = 0.0014641, Final residual = 1.23015e-05, No Iterations 23
DICPCG:  Solving for p_rgh, Initial residual = 0.000333068, Final residual = 9.24635e-08, No Iterations 53
diagonal:  Solving for rho, Initial residual = 0, Final residual = 0, No Iterations 0
time step continuity errors (air): sum local = 6.08827e-10, global = 1.18729e-11, cumulative = -1.9072e-06

Solving for solid region solid
DICPCG:  Solving for h, Initial residual = 0.0126749, Final residual = 3.76121e-07, No Iterations 13
Min/max T:283.156 283.163
ExecutionTime = 62.79 s  ClockTime = 64 s

    min/max/integ(air_to_solid) = -350.295, 345.829, -0.0203085
wallHeatFlux HeatFlux_air write:
    writing field wallHeatFlux
    min/max/integ(solid_to_air) = -345.838, 350.278, 0.0203057
wallHeatFlux HeatFlux_solid write:
    writing field wallHeatFlux
End

