/*---------------------------------------------------------------------------*\
| =========                 |                                                 |
| \\      /  F ield         | OpenFOAM: The Open Source CFD Toolbox           |
|  \\    /   O peration     | Version:  2506                                  |
|   \\  /    A nd           | Website:  www.openfoam.com                      |
|    \\/     M anipulation  |                                                 |
\*---------------------------------------------------------------------------*/
Build  : _615aae61-20250627 OPENFOAM=2506 version=2506
Arch   : "LSB;label=32;scalar=64"
Exec   : blockMesh
Date   : Jan 16 2026
Time   : 18:41:43
Host   : tanguy-VMware-Virtual-Platform
PID    : 12950
I/O    : uncollated
Case   : /home/tanguy/OpenFOAM/tanguy-v2506/run/simpleBoule
nProcs : 1
trapFpe: Floating point exception trapping enabled (FOAM_SIGFPE).
fileModificationChecking : Monitoring run-time modified files using timeStampMaster (fileModificationSkew 5, maxFileModificationPolls 20)
allowSystemOperations : Allowing user-supplied system call operations

// * * * * * * * * * * * * * * * * * * * * * * * * * * * * * * * * * * * * * //
Create time

Creating block mesh from "system/blockMeshDict"
Using #calc - line 32 in file "system/blockMeshDict"
Using #codeStream with "/home/tanguy/OpenFOAM/tanguy-v2506/run/simpleBoule/dynamicCode/platforms/linux64GccDPInt32Opt/lib/libcodeStream_c6f31806d7ee712f3e3c3468e113851d4ab905f0.so"
Could not load "/home/tanguy/OpenFOAM/tanguy-v2506/run/simpleBoule/dynamicCode/platforms/linux64GccDPInt32Opt/lib/libcodeStream_c6f31806d7ee712f3e3c3468e113851d4ab905f0.so"
/home/tanguy/OpenFOAM/tanguy-v2506/run/simpleBoule/dynamicCode/platforms/linux64GccDPInt32Opt/lib/libcodeStream_c6f31806d7ee712f3e3c3468e113851d4ab905f0.so: cannot open shared object file: No such file or directory
Creating new library in "dynamicCode/_c6f31806d7ee712f3e3c3468e113851d4ab905f0/platforms/linux64GccDPInt32Opt/lib/libcodeStream_c6f31806d7ee712f3e3c3468e113851d4ab905f0.so"
Invoking wmake libso /home/tanguy/OpenFOAM/tanguy-v2506/run/simpleBoule/dynamicCode/_c6f31806d7ee712f3e3c3468e113851d4ab905f0
wmake libso /home/tanguy/OpenFOAM/tanguy-v2506/run/simpleBoule/dynamicCode/_c6f31806d7ee712f3e3c3468e113851d4ab905f0
    ln: ./lnInclude
    dep: codeStreamTemplate.C
    Ctoo: codeStreamTemplate.C
    link: /home/tanguy/OpenFOAM/tanguy-v2506/run/simpleBoule/dynamicCode/_c6f31806d7ee712f3e3c3468e113851d4ab905f0/../platforms/linux64GccDPInt32Opt/lib/libcodeStream_c6f31806d7ee712f3e3c3468e113851d4ab905f0.so
Using #calc - line 33 in file "system/blockMeshDict"
Using #calc - line 34 in file "system/blockMeshDict"
Using #calc - line 36 in file "system/blockMeshDict"
Using #codeStream with "/home/tanguy/OpenFOAM/tanguy-v2506/run/simpleBoule/dynamicCode/platforms/linux64GccDPInt32Opt/lib/libcodeStream_4dcb9524a910702be82d1474c91abffbb30aa2bb.so"
Could not load "/home/tanguy/OpenFOAM/tanguy-v2506/run/simpleBoule/dynamicCode/platforms/linux64GccDPInt32Opt/lib/libcodeStream_4dcb9524a910702be82d1474c91abffbb30aa2bb.so"
/home/tanguy/OpenFOAM/tanguy-v2506/run/simpleBoule/dynamicCode/platforms/linux64GccDPInt32Opt/lib/libcodeStream_4dcb9524a910702be82d1474c91abffbb30aa2bb.so: cannot open shared object file: No such file or directory
Creating new library in "dynamicCode/_4dcb9524a910702be82d1474c91abffbb30aa2bb/platforms/linux64GccDPInt32Opt/lib/libcodeStream_4dcb9524a910702be82d1474c91abffbb30aa2bb.so"
Invoking wmake libso /home/tanguy/OpenFOAM/tanguy-v2506/run/simpleBoule/dynamicCode/_4dcb9524a910702be82d1474c91abffbb30aa2bb
wmake libso /home/tanguy/OpenFOAM/tanguy-v2506/run/simpleBoule/dynamicCode/_4dcb9524a910702be82d1474c91abffbb30aa2bb
    ln: ./lnInclude
    dep: codeStreamTemplate.C
    Ctoo: codeStreamTemplate.C
    link: /home/tanguy/OpenFOAM/tanguy-v2506/run/simpleBoule/dynamicCode/_4dcb9524a910702be82d1474c91abffbb30aa2bb/../platforms/linux64GccDPInt32Opt/lib/libcodeStream_4dcb9524a910702be82d1474c91abffbb30aa2bb.so
Using #calc - line 37 in file "system/blockMeshDict"
Using #calc - line 38 in file "system/blockMeshDict"
--> FOAM IOWarning :
    Found [v1012] 'convertToMeters' entry instead of 'scale' in dictionary "system/blockMeshDict"

    This keyword is 174 months old.

Creating block edges
No non-planar block faces defined
Creating topology blocks

Creating topology patches - from boundary section

Creating block mesh topology
--> FOAM Warning : 
    From Foam::polyMesh::polyMesh(const Foam::IOobject&, Foam::pointField&&, const Foam::cellShapeList&, const Foam::faceListList&, const Foam::wordList&, const Foam::PtrList<Foam::dictionary>&, const Foam::word&, const Foam::word&, bool)
    in file meshes/polyMesh/polyMeshFromShapeMesh.C at line 905
    Found 6 undefined faces in mesh; adding to default patch default

Check topology

	Basic statistics
		Number of internal faces : 0
		Number of boundary faces : 6
		Number of defined boundary faces : 6
		Number of undefined boundary faces : 0
	Checking patch -> block consistency

Creating block offsets
Creating merge list (topological search)...

Creating polyMesh from blockMesh
Creating patches
Creating cells
Creating points with scale (1 1 1)
    Block 0 cell size :
        i : 0.0005 .. 0.0005
        j : 0.0005 .. 0.0005
        k : 0.0005 .. 0.0005

No patch pairs to merge

Writing polyMesh with 0 cellZones
----------------
Mesh Information
----------------
  boundingBox: (-0.001 -0.001 -0.001) (0.012 0.012 0.012)
  nPoints: 19683
  nCells: 17576
  nFaces: 54756
  nInternalFaces: 50700
----------------
Patches
----------------
  patch 0 (start: 50700 size: 4056) name: default

End

