/*---------------------------------------------------------------------------*\
| =========                 |                                                 |
| \\      /  F ield         | OpenFOAM: The Open Source CFD Toolbox           |
|  \\    /   O peration     | Version:  2506                                  |
|   \\  /    A nd           | Website:  www.openfoam.com                      |
|    \\/     M anipulation  |                                                 |
\*---------------------------------------------------------------------------*/
Build  : _615aae61-20250627 OPENFOAM=2506 version=2506
Arch   : "LSB;label=32;scalar=64"
Exec   : snappyHexMesh -overwrite
Date   : Jan 10 2026
Time   : 23:24:19
Host   : tanguy-VMware-Virtual-Platform
PID    : 25985
I/O    : uncollated
Case   : /home/tanguy/OpenFOAM/tanguy-v2506/run/simpleBoule
nProcs : 1
trapFpe: Floating point exception trapping enabled (FOAM_SIGFPE).
fileModificationChecking : Monitoring run-time modified files using timeStampMaster (fileModificationSkew 5, maxFileModificationPolls 20)
allowSystemOperations : Allowing user-supplied system call operations

// * * * * * * * * * * * * * * * * * * * * * * * * * * * * * * * * * * * * * //
Create time

Create mesh for time = 0

Read mesh in = 0.01 s

Overall mesh bounding box  : (-0.001 -0.001 -0.001) (0.011 0.011 0.011)
Relative tolerance         : 1e-06
Absolute matching distance : 2.07846e-08

Reading refinement surfaces.
Read refinement surfaces in = 0.01 s

Reading refinement shells.
Read refinement shells in = 0 s

Setting refinement level of surface to be consistent with shells.
For geometry box_walls.stl detected 0 uncached triangles out of 12
Checked shell refinement in = 0 s

Reading features.
Read edgeMesh box_walls.eMesh
    points      : 8
    edges       : 12
    boundingBox : (0 0 0) (0.01 0.01 0.01)

Refinement level according to distance to "box_walls.eMesh" (8 points, 12 edges).
    level 0 for all cells within 0 metre.
Read features in = 0 s


Determining initial surface intersections
-----------------------------------------

Edge intersection testing:
    Number of edges             : 43200
    Number of edges to retest   : 0
    Number of intersected edges : 0
Edge intersection testing:
    Number of edges             : 43200
    Number of edges to retest   : 43200
    Number of intersected edges : 3648
Calculated surface intersections in = 0.06 s

Initial mesh : cells:13824  faces:43200  points:15625
Cells per refinement level:
    0	13824
Setting refinement level of surface to be consistent with curvature.
Checked curvature refinement in = 0 s


Adding patches for surface regions
----------------------------------

Patch Type                Region                        
----- ----                ------                        
sphere:

1     wall                sphere                        
2     wall                sphere_slave                  

box_walls:

3     patch               inlet                         
4     patch               outlet                        
5     wall                walls                         

Added patches in = 0 s

Edge intersection testing:
    Number of edges             : 43200
    Number of edges to retest   : 0
    Number of intersected edges : 3648
Decomposition method none [1]

Refinement phase
----------------

Found point (0.005 0.005 0.005) in cell 7212 on processor 0
Found point (0.001 0.001 0.001) in cell 2404 on processor 0

Feature refinement iteration 0
------------------------------

Marked for refinement due to explicit features             : 0 cells.
Determined cells to refine in = 0.12 s
Selected for feature refinement : 0 cells (out of 13824)
Stopping refining since too few cells selected.


Surface refinement iteration 0
------------------------------

Marked for refinement due to surface intersection          : 1376 cells.
Determined cells to refine in = 0.01 s
Selected for refinement : 1376 cells (out of 13824)
Edge intersection testing:
    Number of edges             : 75876
    Number of edges to retest   : 42204
    Number of intersected edges : 7272
Refined mesh in = 0.11 s
After refinement surface refinement iteration 0 : cells:23456  faces:75876  points:29049
Cells per refinement level:
    0	12448
    1	11008

Surface refinement iteration 1
------------------------------

Marked for refinement due to surface intersection          : 24 cells.
Determined cells to refine in = 0 s
Selected for refinement : 24 cells (out of 23456)
Edge intersection testing:
    Number of edges             : 76380
    Number of edges to retest   : 2232
    Number of intersected edges : 7272
Refined mesh in = 0.08 s
After refinement surface refinement iteration 1 : cells:23624  faces:76380  points:29217
Cells per refinement level:
    0	12424
    1	11200

Surface refinement iteration 2
------------------------------

Marked for refinement due to surface intersection          : 0 cells.
Determined cells to refine in = 0.01 s
Selected for refinement : 0 cells (out of 23624)
Stopping refining since too few cells selected.


Removing mesh beyond surface intersections
------------------------------------------

Setting cellZones according to locationsInMesh:
Location : (0.005 0.005 0.005)
    cellZone : solid
Location : (0.001 0.001 0.001)
    cellZone : air

For cellZone solid found point (0.005 0.005 0.005) in global region 1 out of 2 regions.
For cellZone air found point (0.001 0.001 0.001) in global region 1 out of 2 regions.
--> FOAM Warning : 
    From void Foam::meshRefinement::findCellZoneInsideWalk(const Foam::pointField&, const Foam::labelList&, const Foam::labelList&, Foam::labelList&) const
    in file meshRefinement/meshRefinementBaffles.C at line 1788
    Cell 1202 at (0.00025 0.00025 0.00025) is inside cellZone air from locationInMesh (0.001 0.001 0.001) but already marked as being in zone solid
This can happen if your surfaces are not (sufficiently) closed.
--> FOAM Warning : 
    From void Foam::meshRefinement::findCellZoneInsideWalk(const Foam::pointField&, const Foam::labelList&, const Foam::labelList&, Foam::labelList&) const
    in file meshRefinement/meshRefinementBaffles.C at line 1788
    Cell 1203 at (0.00075 0.00025 0.00025) is inside cellZone air from locationInMesh (0.001 0.001 0.001) but already marked as being in zone solid
This can happen if your surfaces are not (sufficiently) closed.
--> FOAM Warning : 
    From void Foam::meshRefinement::findCellZoneInsideWalk(const Foam::pointField&, const Foam::labelList&, const Foam::labelList&, Foam::labelList&) const
    in file meshRefinement/meshRefinementBaffles.C at line 1788
    Cell 1204 at (0.00125 0.00025 0.00025) is inside cellZone air from locationInMesh (0.001 0.001 0.001) but already marked as being in zone solid
This can happen if your surfaces are not (sufficiently) closed.
--> FOAM Warning : 
    From void Foam::meshRefinement::findCellZoneInsideWalk(const Foam::pointField&, const Foam::labelList&, const Foam::labelList&, Foam::labelList&) const
    in file meshRefinement/meshRefinementBaffles.C at line 1788
    Cell 1205 at (0.00175 0.00025 0.00025) is inside cellZone air from locationInMesh (0.001 0.001 0.001) but already marked as being in zone solid
This can happen if your surfaces are not (sufficiently) closed.
--> FOAM Warning : 
    From void Foam::meshRefinement::findCellZoneInsideWalk(const Foam::pointField&, const Foam::labelList&, const Foam::labelList&, Foam::labelList&) const
    in file meshRefinement/meshRefinementBaffles.C at line 1788
    Cell 1206 at (0.00225 0.00025 0.00025) is inside cellZone air from locationInMesh (0.001 0.001 0.001) but already marked as being in zone solid
This can happen if your surfaces are not (sufficiently) closed.
--> FOAM Warning : 
    From void Foam::meshRefinement::findCellZoneInsideWalk(const Foam::pointField&, const Foam::labelList&, const Foam::labelList&, Foam::labelList&) const
    in file meshRefinement/meshRefinementBaffles.C at line 1788
    Cell 1207 at (0.00275 0.00025 0.00025) is inside cellZone air from locationInMesh (0.001 0.001 0.001) but already marked as being in zone solid
This can happen if your surfaces are not (sufficiently) closed.
--> FOAM Warning : 
    From void Foam::meshRefinement::findCellZoneInsideWalk(const Foam::pointField&, const Foam::labelList&, const Foam::labelList&, Foam::labelList&) const
    in file meshRefinement/meshRefinementBaffles.C at line 1788
    Cell 1208 at (0.00325 0.00025 0.00025) is inside cellZone air from locationInMesh (0.001 0.001 0.001) but already marked as being in zone solid
This can happen if your surfaces are not (sufficiently) closed.
--> FOAM Warning : 
    From void Foam::meshRefinement::findCellZoneInsideWalk(const Foam::pointField&, const Foam::labelList&, const Foam::labelList&, Foam::labelList&) const
    in file meshRefinement/meshRefinementBaffles.C at line 1788
    Cell 1209 at (0.00375 0.00025 0.00025) is inside cellZone air from locationInMesh (0.001 0.001 0.001) but already marked as being in zone solid
This can happen if your surfaces are not (sufficiently) closed.
--> FOAM Warning : 
    From void Foam::meshRefinement::findCellZoneInsideWalk(const Foam::pointField&, const Foam::labelList&, const Foam::labelList&, Foam::labelList&) const
    in file meshRefinement/meshRefinementBaffles.C at line 1788
    Cell 1210 at (0.00425 0.00025 0.00025) is inside cellZone air from locationInMesh (0.001 0.001 0.001) but already marked as being in zone solid
This can happen if your surfaces are not (sufficiently) closed.
--> FOAM Warning : 
    From void Foam::meshRefinement::findCellZoneInsideWalk(const Foam::pointField&, const Foam::labelList&, const Foam::labelList&, Foam::labelList&) const
    in file meshRefinement/meshRefinementBaffles.C at line 1788
    Cell 1211 at (0.00475 0.00025 0.00025) is inside cellZone air from locationInMesh (0.001 0.001 0.001) but already marked as being in zone solid
This can happen if your surfaces are not (sufficiently) closed.
Found 1 named surfaces with a provided inside point. Assigning cells inside these surfaces to the corresponding cellZone.

For cellZone solid found point (0.005 0.005 0.005) in global region 2 out of 3 regions.
--> FOAM Warning : 
    From void Foam::meshRefinement::findCellZoneInsideWalk(const Foam::pointField&, const Foam::labelList&, const Foam::labelList&, Foam::labelList&) const
    in file meshRefinement/meshRefinementBaffles.C at line 1788
    Cell 2555 at (0.004625 0.004125 0.001125) is inside cellZone solid from locationInMesh (0.005 0.005 0.005) but already marked as being in zone air
This can happen if your surfaces are not (sufficiently) closed.
--> FOAM Warning : 
    From void Foam::meshRefinement::findCellZoneInsideWalk(const Foam::pointField&, const Foam::labelList&, const Foam::labelList&, Foam::labelList&) const
    in file meshRefinement/meshRefinementBaffles.C at line 1788
    Cell 2556 at (0.005125 0.004125 0.001125) is inside cellZone solid from locationInMesh (0.005 0.005 0.005) but already marked as being in zone air
This can happen if your surfaces are not (sufficiently) closed.
--> FOAM Warning : 
    From void Foam::meshRefinement::findCellZoneInsideWalk(const Foam::pointField&, const Foam::labelList&, const Foam::labelList&, Foam::labelList&) const
    in file meshRefinement/meshRefinementBaffles.C at line 1788
    Cell 2578 at (0.004125 0.004625 0.001125) is inside cellZone solid from locationInMesh (0.005 0.005 0.005) but already marked as being in zone air
This can happen if your surfaces are not (sufficiently) closed.
--> FOAM Warning : 
    From void Foam::meshRefinement::findCellZoneInsideWalk(const Foam::pointField&, const Foam::labelList&, const Foam::labelList&, Foam::labelList&) const
    in file meshRefinement/meshRefinementBaffles.C at line 1788
    Cell 2579 at (0.004625 0.004625 0.001125) is inside cellZone solid from locationInMesh (0.005 0.005 0.005) but already marked as being in zone air
This can happen if your surfaces are not (sufficiently) closed.
--> FOAM Warning : 
    From void Foam::meshRefinement::findCellZoneInsideWalk(const Foam::pointField&, const Foam::labelList&, const Foam::labelList&, Foam::labelList&) const
    in file meshRefinement/meshRefinementBaffles.C at line 1788
    Cell 2580 at (0.005125 0.004625 0.001125) is inside cellZone solid from locationInMesh (0.005 0.005 0.005) but already marked as being in zone air
This can happen if your surfaces are not (sufficiently) closed.
--> FOAM Warning : 
    From void Foam::meshRefinement::findCellZoneInsideWalk(const Foam::pointField&, const Foam::labelList&, const Foam::labelList&, Foam::labelList&) const
    in file meshRefinement/meshRefinementBaffles.C at line 1788
    Cell 2581 at (0.005625 0.004625 0.001125) is inside cellZone solid from locationInMesh (0.005 0.005 0.005) but already marked as being in zone air
This can happen if your surfaces are not (sufficiently) closed.
--> FOAM Warning : 
    From void Foam::meshRefinement::findCellZoneInsideWalk(const Foam::pointField&, const Foam::labelList&, const Foam::labelList&, Foam::labelList&) const
    in file meshRefinement/meshRefinementBaffles.C at line 1788
    Cell 2602 at (0.004125 0.005125 0.001125) is inside cellZone solid from locationInMesh (0.005 0.005 0.005) but already marked as being in zone air
This can happen if your surfaces are not (sufficiently) closed.
--> FOAM Warning : 
    From void Foam::meshRefinement::findCellZoneInsideWalk(const Foam::pointField&, const Foam::labelList&, const Foam::labelList&, Foam::labelList&) const
    in file meshRefinement/meshRefinementBaffles.C at line 1788
    Cell 2603 at (0.004625 0.005125 0.001125) is inside cellZone solid from locationInMesh (0.005 0.005 0.005) but already marked as being in zone air
This can happen if your surfaces are not (sufficiently) closed.
--> FOAM Warning : 
    From void Foam::meshRefinement::findCellZoneInsideWalk(const Foam::pointField&, const Foam::labelList&, const Foam::labelList&, Foam::labelList&) const
    in file meshRefinement/meshRefinementBaffles.C at line 1788
    Cell 2604 at (0.005125 0.005125 0.001125) is inside cellZone solid from locationInMesh (0.005 0.005 0.005) but already marked as being in zone air
This can happen if your surfaces are not (sufficiently) closed.
--> FOAM Warning : 
    From void Foam::meshRefinement::findCellZoneInsideWalk(const Foam::pointField&, const Foam::labelList&, const Foam::labelList&, Foam::labelList&) const
    in file meshRefinement/meshRefinementBaffles.C at line 1788
    Cell 2605 at (0.005625 0.005125 0.001125) is inside cellZone solid from locationInMesh (0.005 0.005 0.005) but already marked as being in zone air
This can happen if your surfaces are not (sufficiently) closed.
Walking from known cellZones; crossing a faceZone face changes cellZone

--> FOAM Warning : 
    From void Foam::meshRefinement::nearestFace(const Foam::labelUList&, const Foam::bitSet&, Foam::autoPtr<Foam::mapDistribute>&, Foam::labelList&, Foam::label) const
    in file meshRefinement/meshRefinement.C at line 526
    Did not visit some faces, e.g. face 9953 at (0.005 0.00375 0.00175)
Keeping all cells containing inside points
Selected for keeping : 20448 cells.
Edge intersection testing:
    Number of edges             : 66576
    Number of edges to retest   : 2904
    Number of intersected edges : 7272

Shell refinement iteration 0
----------------------------

Marked for refinement due to distance to explicit features : 0 cells.
Marked for refinement due to refinement shells             : 0 cells.
Determined cells to refine in = 0.11 s
Selected for internal refinement : 1489 cells (out of 20448)
Edge intersection testing:
    Number of edges             : 97899
    Number of edges to retest   : 71805
    Number of intersected edges : 7668
Refined mesh in = 0.15 s
After refinement shell refinement iteration 0 : cells:30871  faces:97899  points:36248
Cells per refinement level:
    0	7759
    1	23112

Shell refinement iteration 1
----------------------------

Marked for refinement due to distance to explicit features : 0 cells.
Marked for refinement due to refinement shells             : 0 cells.
Determined cells to refine in = 0.02 s
Selected for internal refinement : 60 cells (out of 30871)
Edge intersection testing:
    Number of edges             : 99159
    Number of edges to retest   : 6204
    Number of intersected edges : 7668
Refined mesh in = 0.09 s
After refinement shell refinement iteration 1 : cells:31291  faces:99159  points:36668
Cells per refinement level:
    0	7699
    1	23592

Shell refinement iteration 2
----------------------------

Marked for refinement due to distance to explicit features : 0 cells.
Marked for refinement due to refinement shells             : 0 cells.
Determined cells to refine in = 0.02 s
Selected for internal refinement : 0 cells (out of 31291)
Stopping refining since too few cells selected.


Dangling coarse cells refinement iteration 0
--------------------------------------------

Determined cells to refine in = 0 s
Selected for refinement : 0 cells (out of 31291)
Stopping refining since too few cells selected.


Dangling coarse cells refinement iteration 0
--------------------------------------------

Determined cells to refine in = 0.01 s
Selected for refinement : 0 cells (out of 31291)
Stopping refining since too few cells selected.


Refinement transition refinement iteration 0
--------------------------------------------

Determined cells to refine in = 0 s
Selected for refinement : 0 cells (out of 31291)
Stopping refining since too few cells selected.


Splitting mesh at surface intersections
---------------------------------------

Introducing baffles for 7668 faces that are intersected by the surface.

Setting cellZones according to locationsInMesh:
Location : (0.005 0.005 0.005)
    cellZone : solid
Location : (0.001 0.001 0.001)
    cellZone : air

For cellZone solid found point (0.005 0.005 0.005) in global region 1 out of 2 regions.
For cellZone air found point (0.001 0.001 0.001) in global region 1 out of 2 regions.
--> FOAM Warning : 
    From void Foam::meshRefinement::findCellZoneInsideWalk(const Foam::pointField&, const Foam::labelList&, const Foam::labelList&, Foam::labelList&) const
    in file meshRefinement/meshRefinementBaffles.C at line 1788
    Cell 507 at (0.00025 0.00025 0.00025) is inside cellZone air from locationInMesh (0.001 0.001 0.001) but already marked as being in zone solid
This can happen if your surfaces are not (sufficiently) closed.
--> FOAM Warning : 
    From void Foam::meshRefinement::findCellZoneInsideWalk(const Foam::pointField&, const Foam::labelList&, const Foam::labelList&, Foam::labelList&) const
    in file meshRefinement/meshRefinementBaffles.C at line 1788
    Cell 508 at (0.00075 0.00025 0.00025) is inside cellZone air from locationInMesh (0.001 0.001 0.001) but already marked as being in zone solid
This can happen if your surfaces are not (sufficiently) closed.
--> FOAM Warning : 
    From void Foam::meshRefinement::findCellZoneInsideWalk(const Foam::pointField&, const Foam::labelList&, const Foam::labelList&, Foam::labelList&) const
    in file meshRefinement/meshRefinementBaffles.C at line 1788
    Cell 509 at (0.00125 0.00025 0.00025) is inside cellZone air from locationInMesh (0.001 0.001 0.001) but already marked as being in zone solid
This can happen if your surfaces are not (sufficiently) closed.
--> FOAM Warning : 
    From void Foam::meshRefinement::findCellZoneInsideWalk(const Foam::pointField&, const Foam::labelList&, const Foam::labelList&, Foam::labelList&) const
    in file meshRefinement/meshRefinementBaffles.C at line 1788
    Cell 510 at (0.00175 0.00025 0.00025) is inside cellZone air from locationInMesh (0.001 0.001 0.001) but already marked as being in zone solid
This can happen if your surfaces are not (sufficiently) closed.
--> FOAM Warning : 
    From void Foam::meshRefinement::findCellZoneInsideWalk(const Foam::pointField&, const Foam::labelList&, const Foam::labelList&, Foam::labelList&) const
    in file meshRefinement/meshRefinementBaffles.C at line 1788
    Cell 511 at (0.00225 0.00025 0.00025) is inside cellZone air from locationInMesh (0.001 0.001 0.001) but already marked as being in zone solid
This can happen if your surfaces are not (sufficiently) closed.
--> FOAM Warning : 
    From void Foam::meshRefinement::findCellZoneInsideWalk(const Foam::pointField&, const Foam::labelList&, const Foam::labelList&, Foam::labelList&) const
    in file meshRefinement/meshRefinementBaffles.C at line 1788
    Cell 512 at (0.00275 0.00025 0.00025) is inside cellZone air from locationInMesh (0.001 0.001 0.001) but already marked as being in zone solid
This can happen if your surfaces are not (sufficiently) closed.
--> FOAM Warning : 
    From void Foam::meshRefinement::findCellZoneInsideWalk(const Foam::pointField&, const Foam::labelList&, const Foam::labelList&, Foam::labelList&) const
    in file meshRefinement/meshRefinementBaffles.C at line 1788
    Cell 513 at (0.00325 0.00025 0.00025) is inside cellZone air from locationInMesh (0.001 0.001 0.001) but already marked as being in zone solid
This can happen if your surfaces are not (sufficiently) closed.
--> FOAM Warning : 
    From void Foam::meshRefinement::findCellZoneInsideWalk(const Foam::pointField&, const Foam::labelList&, const Foam::labelList&, Foam::labelList&) const
    in file meshRefinement/meshRefinementBaffles.C at line 1788
    Cell 514 at (0.00375 0.00025 0.00025) is inside cellZone air from locationInMesh (0.001 0.001 0.001) but already marked as being in zone solid
This can happen if your surfaces are not (sufficiently) closed.
--> FOAM Warning : 
    From void Foam::meshRefinement::findCellZoneInsideWalk(const Foam::pointField&, const Foam::labelList&, const Foam::labelList&, Foam::labelList&) const
    in file meshRefinement/meshRefinementBaffles.C at line 1788
    Cell 515 at (0.00425 0.00025 0.00025) is inside cellZone air from locationInMesh (0.001 0.001 0.001) but already marked as being in zone solid
This can happen if your surfaces are not (sufficiently) closed.
--> FOAM Warning : 
    From void Foam::meshRefinement::findCellZoneInsideWalk(const Foam::pointField&, const Foam::labelList&, const Foam::labelList&, Foam::labelList&) const
    in file meshRefinement/meshRefinementBaffles.C at line 1788
    Cell 516 at (0.00475 0.00025 0.00025) is inside cellZone air from locationInMesh (0.001 0.001 0.001) but already marked as being in zone solid
This can happen if your surfaces are not (sufficiently) closed.
Found 1 named surfaces with a provided inside point. Assigning cells inside these surfaces to the corresponding cellZone.

For cellZone solid found point (0.005 0.005 0.005) in global region 2 out of 3 regions.
--> FOAM Warning : 
    From void Foam::meshRefinement::findCellZoneInsideWalk(const Foam::pointField&, const Foam::labelList&, const Foam::labelList&, Foam::labelList&) const
    in file meshRefinement/meshRefinementBaffles.C at line 1788
    Cell 1660 at (0.004625 0.004125 0.001125) is inside cellZone solid from locationInMesh (0.005 0.005 0.005) but already marked as being in zone air
This can happen if your surfaces are not (sufficiently) closed.
--> FOAM Warning : 
    From void Foam::meshRefinement::findCellZoneInsideWalk(const Foam::pointField&, const Foam::labelList&, const Foam::labelList&, Foam::labelList&) const
    in file meshRefinement/meshRefinementBaffles.C at line 1788
    Cell 1661 at (0.005125 0.004125 0.001125) is inside cellZone solid from locationInMesh (0.005 0.005 0.005) but already marked as being in zone air
This can happen if your surfaces are not (sufficiently) closed.
--> FOAM Warning : 
    From void Foam::meshRefinement::findCellZoneInsideWalk(const Foam::pointField&, const Foam::labelList&, const Foam::labelList&, Foam::labelList&) const
    in file meshRefinement/meshRefinementBaffles.C at line 1788
    Cell 1681 at (0.004125 0.004625 0.001125) is inside cellZone solid from locationInMesh (0.005 0.005 0.005) but already marked as being in zone air
This can happen if your surfaces are not (sufficiently) closed.
--> FOAM Warning : 
    From void Foam::meshRefinement::findCellZoneInsideWalk(const Foam::pointField&, const Foam::labelList&, const Foam::labelList&, Foam::labelList&) const
    in file meshRefinement/meshRefinementBaffles.C at line 1788
    Cell 1682 at (0.004625 0.004625 0.001125) is inside cellZone solid from locationInMesh (0.005 0.005 0.005) but already marked as being in zone air
This can happen if your surfaces are not (sufficiently) closed.
--> FOAM Warning : 
    From void Foam::meshRefinement::findCellZoneInsideWalk(const Foam::pointField&, const Foam::labelList&, const Foam::labelList&, Foam::labelList&) const
    in file meshRefinement/meshRefinementBaffles.C at line 1788
    Cell 1683 at (0.005125 0.004625 0.001125) is inside cellZone solid from locationInMesh (0.005 0.005 0.005) but already marked as being in zone air
This can happen if your surfaces are not (sufficiently) closed.
--> FOAM Warning : 
    From void Foam::meshRefinement::findCellZoneInsideWalk(const Foam::pointField&, const Foam::labelList&, const Foam::labelList&, Foam::labelList&) const
    in file meshRefinement/meshRefinementBaffles.C at line 1788
    Cell 1684 at (0.005625 0.004625 0.001125) is inside cellZone solid from locationInMesh (0.005 0.005 0.005) but already marked as being in zone air
This can happen if your surfaces are not (sufficiently) closed.
--> FOAM Warning : 
    From void Foam::meshRefinement::findCellZoneInsideWalk(const Foam::pointField&, const Foam::labelList&, const Foam::labelList&, Foam::labelList&) const
    in file meshRefinement/meshRefinementBaffles.C at line 1788
    Cell 1703 at (0.004125 0.005125 0.001125) is inside cellZone solid from locationInMesh (0.005 0.005 0.005) but already marked as being in zone air
This can happen if your surfaces are not (sufficiently) closed.
--> FOAM Warning : 
    From void Foam::meshRefinement::findCellZoneInsideWalk(const Foam::pointField&, const Foam::labelList&, const Foam::labelList&, Foam::labelList&) const
    in file meshRefinement/meshRefinementBaffles.C at line 1788
    Cell 1704 at (0.004625 0.005125 0.001125) is inside cellZone solid from locationInMesh (0.005 0.005 0.005) but already marked as being in zone air
This can happen if your surfaces are not (sufficiently) closed.
--> FOAM Warning : 
    From void Foam::meshRefinement::findCellZoneInsideWalk(const Foam::pointField&, const Foam::labelList&, const Foam::labelList&, Foam::labelList&) const
    in file meshRefinement/meshRefinementBaffles.C at line 1788
    Cell 1705 at (0.005125 0.005125 0.001125) is inside cellZone solid from locationInMesh (0.005 0.005 0.005) but already marked as being in zone air
This can happen if your surfaces are not (sufficiently) closed.
--> FOAM Warning : 
    From void Foam::meshRefinement::findCellZoneInsideWalk(const Foam::pointField&, const Foam::labelList&, const Foam::labelList&, Foam::labelList&) const
    in file meshRefinement/meshRefinementBaffles.C at line 1788
    Cell 1706 at (0.005625 0.005125 0.001125) is inside cellZone solid from locationInMesh (0.005 0.005 0.005) but already marked as being in zone air
This can happen if your surfaces are not (sufficiently) closed.
Walking from known cellZones; crossing a faceZone face changes cellZone

Edge intersection testing:
    Number of edges             : 101955
    Number of edges to retest   : 21816
    Number of intersected edges : 10464
Created baffles in = 0.11 s


After introducing baffles : cells:31291  faces:101955  points:36668
Cells per refinement level:
    0	7699
    1	23592

Introducing baffles to block off problem cells
----------------------------------------------

markFacesOnProblemCells : marked 5292 additional internal faces to be converted into baffles.
Analyzed problem cells in = 0.06 s


Introducing baffles to delete problem cells.

Edge intersection testing:
    Number of edges             : 107247
    Number of edges to retest   : 16284
    Number of intersected edges : 10464
Created baffles in = 0.06 s


After introducing baffles : cells:31291  faces:107247  points:36668
Cells per refinement level:
    0	7699
    1	23592
Setting cellZones according to locationsInMesh:
Location : (0.005 0.005 0.005)
    cellZone : solid
Location : (0.001 0.001 0.001)
    cellZone : air

For cellZone solid found point (0.005 0.005 0.005) in global region 507 out of 2649 regions.
For cellZone air found point (0.001 0.001 0.001) in global region 507 out of 2649 regions.
--> FOAM Warning : 
    From void Foam::meshRefinement::findCellZoneInsideWalk(const Foam::pointField&, const Foam::labelList&, const Foam::labelList&, Foam::labelList&) const
    in file meshRefinement/meshRefinementBaffles.C at line 1788
    Cell 507 at (0.00025 0.00025 0.00025) is inside cellZone air from locationInMesh (0.001 0.001 0.001) but already marked as being in zone solid
This can happen if your surfaces are not (sufficiently) closed.
--> FOAM Warning : 
    From void Foam::meshRefinement::findCellZoneInsideWalk(const Foam::pointField&, const Foam::labelList&, const Foam::labelList&, Foam::labelList&) const
    in file meshRefinement/meshRefinementBaffles.C at line 1788
    Cell 508 at (0.00075 0.00025 0.00025) is inside cellZone air from locationInMesh (0.001 0.001 0.001) but already marked as being in zone solid
This can happen if your surfaces are not (sufficiently) closed.
--> FOAM Warning : 
    From void Foam::meshRefinement::findCellZoneInsideWalk(const Foam::pointField&, const Foam::labelList&, const Foam::labelList&, Foam::labelList&) const
    in file meshRefinement/meshRefinementBaffles.C at line 1788
    Cell 509 at (0.00125 0.00025 0.00025) is inside cellZone air from locationInMesh (0.001 0.001 0.001) but already marked as being in zone solid
This can happen if your surfaces are not (sufficiently) closed.
--> FOAM Warning : 
    From void Foam::meshRefinement::findCellZoneInsideWalk(const Foam::pointField&, const Foam::labelList&, const Foam::labelList&, Foam::labelList&) const
    in file meshRefinement/meshRefinementBaffles.C at line 1788
    Cell 510 at (0.00175 0.00025 0.00025) is inside cellZone air from locationInMesh (0.001 0.001 0.001) but already marked as being in zone solid
This can happen if your surfaces are not (sufficiently) closed.
--> FOAM Warning : 
    From void Foam::meshRefinement::findCellZoneInsideWalk(const Foam::pointField&, const Foam::labelList&, const Foam::labelList&, Foam::labelList&) const
    in file meshRefinement/meshRefinementBaffles.C at line 1788
    Cell 511 at (0.00225 0.00025 0.00025) is inside cellZone air from locationInMesh (0.001 0.001 0.001) but already marked as being in zone solid
This can happen if your surfaces are not (sufficiently) closed.
--> FOAM Warning : 
    From void Foam::meshRefinement::findCellZoneInsideWalk(const Foam::pointField&, const Foam::labelList&, const Foam::labelList&, Foam::labelList&) const
    in file meshRefinement/meshRefinementBaffles.C at line 1788
    Cell 512 at (0.00275 0.00025 0.00025) is inside cellZone air from locationInMesh (0.001 0.001 0.001) but already marked as being in zone solid
This can happen if your surfaces are not (sufficiently) closed.
--> FOAM Warning : 
    From void Foam::meshRefinement::findCellZoneInsideWalk(const Foam::pointField&, const Foam::labelList&, const Foam::labelList&, Foam::labelList&) const
    in file meshRefinement/meshRefinementBaffles.C at line 1788
    Cell 513 at (0.00325 0.00025 0.00025) is inside cellZone air from locationInMesh (0.001 0.001 0.001) but already marked as being in zone solid
This can happen if your surfaces are not (sufficiently) closed.
--> FOAM Warning : 
    From void Foam::meshRefinement::findCellZoneInsideWalk(const Foam::pointField&, const Foam::labelList&, const Foam::labelList&, Foam::labelList&) const
    in file meshRefinement/meshRefinementBaffles.C at line 1788
    Cell 514 at (0.00375 0.00025 0.00025) is inside cellZone air from locationInMesh (0.001 0.001 0.001) but already marked as being in zone solid
This can happen if your surfaces are not (sufficiently) closed.
--> FOAM Warning : 
    From void Foam::meshRefinement::findCellZoneInsideWalk(const Foam::pointField&, const Foam::labelList&, const Foam::labelList&, Foam::labelList&) const
    in file meshRefinement/meshRefinementBaffles.C at line 1788
    Cell 515 at (0.00425 0.00025 0.00025) is inside cellZone air from locationInMesh (0.001 0.001 0.001) but already marked as being in zone solid
This can happen if your surfaces are not (sufficiently) closed.
--> FOAM Warning : 
    From void Foam::meshRefinement::findCellZoneInsideWalk(const Foam::pointField&, const Foam::labelList&, const Foam::labelList&, Foam::labelList&) const
    in file meshRefinement/meshRefinementBaffles.C at line 1788
    Cell 516 at (0.00475 0.00025 0.00025) is inside cellZone air from locationInMesh (0.001 0.001 0.001) but already marked as being in zone solid
This can happen if your surfaces are not (sufficiently) closed.
Found 1 named surfaces with a provided inside point. Assigning cells inside these surfaces to the corresponding cellZone.

For cellZone solid found point (0.005 0.005 0.005) in global region 692 out of 2650 regions.
--> FOAM Warning : 
    From void Foam::meshRefinement::findCellZoneInsideWalk(const Foam::pointField&, const Foam::labelList&, const Foam::labelList&, Foam::labelList&) const
    in file meshRefinement/meshRefinementBaffles.C at line 1788
    Cell 1660 at (0.004625 0.004125 0.001125) is inside cellZone solid from locationInMesh (0.005 0.005 0.005) but already marked as being in zone air
This can happen if your surfaces are not (sufficiently) closed.
--> FOAM Warning : 
    From void Foam::meshRefinement::findCellZoneInsideWalk(const Foam::pointField&, const Foam::labelList&, const Foam::labelList&, Foam::labelList&) const
    in file meshRefinement/meshRefinementBaffles.C at line 1788
    Cell 1661 at (0.005125 0.004125 0.001125) is inside cellZone solid from locationInMesh (0.005 0.005 0.005) but already marked as being in zone air
This can happen if your surfaces are not (sufficiently) closed.
--> FOAM Warning : 
    From void Foam::meshRefinement::findCellZoneInsideWalk(const Foam::pointField&, const Foam::labelList&, const Foam::labelList&, Foam::labelList&) const
    in file meshRefinement/meshRefinementBaffles.C at line 1788
    Cell 1681 at (0.004125 0.004625 0.001125) is inside cellZone solid from locationInMesh (0.005 0.005 0.005) but already marked as being in zone air
This can happen if your surfaces are not (sufficiently) closed.
--> FOAM Warning : 
    From void Foam::meshRefinement::findCellZoneInsideWalk(const Foam::pointField&, const Foam::labelList&, const Foam::labelList&, Foam::labelList&) const
    in file meshRefinement/meshRefinementBaffles.C at line 1788
    Cell 1682 at (0.004625 0.004625 0.001125) is inside cellZone solid from locationInMesh (0.005 0.005 0.005) but already marked as being in zone air
This can happen if your surfaces are not (sufficiently) closed.
--> FOAM Warning : 
    From void Foam::meshRefinement::findCellZoneInsideWalk(const Foam::pointField&, const Foam::labelList&, const Foam::labelList&, Foam::labelList&) const
    in file meshRefinement/meshRefinementBaffles.C at line 1788
    Cell 1683 at (0.005125 0.004625 0.001125) is inside cellZone solid from locationInMesh (0.005 0.005 0.005) but already marked as being in zone air
This can happen if your surfaces are not (sufficiently) closed.
--> FOAM Warning : 
    From void Foam::meshRefinement::findCellZoneInsideWalk(const Foam::pointField&, const Foam::labelList&, const Foam::labelList&, Foam::labelList&) const
    in file meshRefinement/meshRefinementBaffles.C at line 1788
    Cell 1684 at (0.005625 0.004625 0.001125) is inside cellZone solid from locationInMesh (0.005 0.005 0.005) but already marked as being in zone air
This can happen if your surfaces are not (sufficiently) closed.
--> FOAM Warning : 
    From void Foam::meshRefinement::findCellZoneInsideWalk(const Foam::pointField&, const Foam::labelList&, const Foam::labelList&, Foam::labelList&) const
    in file meshRefinement/meshRefinementBaffles.C at line 1788
    Cell 1703 at (0.004125 0.005125 0.001125) is inside cellZone solid from locationInMesh (0.005 0.005 0.005) but already marked as being in zone air
This can happen if your surfaces are not (sufficiently) closed.
--> FOAM Warning : 
    From void Foam::meshRefinement::findCellZoneInsideWalk(const Foam::pointField&, const Foam::labelList&, const Foam::labelList&, Foam::labelList&) const
    in file meshRefinement/meshRefinementBaffles.C at line 1788
    Cell 1704 at (0.004625 0.005125 0.001125) is inside cellZone solid from locationInMesh (0.005 0.005 0.005) but already marked as being in zone air
This can happen if your surfaces are not (sufficiently) closed.
--> FOAM Warning : 
    From void Foam::meshRefinement::findCellZoneInsideWalk(const Foam::pointField&, const Foam::labelList&, const Foam::labelList&, Foam::labelList&) const
    in file meshRefinement/meshRefinementBaffles.C at line 1788
    Cell 1705 at (0.005125 0.005125 0.001125) is inside cellZone solid from locationInMesh (0.005 0.005 0.005) but already marked as being in zone air
This can happen if your surfaces are not (sufficiently) closed.
--> FOAM Warning : 
    From void Foam::meshRefinement::findCellZoneInsideWalk(const Foam::pointField&, const Foam::labelList&, const Foam::labelList&, Foam::labelList&) const
    in file meshRefinement/meshRefinementBaffles.C at line 1788
    Cell 1706 at (0.005625 0.005125 0.001125) is inside cellZone solid from locationInMesh (0.005 0.005 0.005) but already marked as being in zone air
This can happen if your surfaces are not (sufficiently) closed.
Walking from known cellZones; crossing a faceZone face changes cellZone

Edge intersection testing:
    Number of edges             : 107247
    Number of edges to retest   : 26376
    Number of intersected edges : 10464

Remove unreachable sections of mesh
-----------------------------------

Keeping all cells containing points 2((0.005 0.005 0.005) (0.001 0.001 0.001))
Selected for keeping : 28643 cells.
Edge intersection testing:
    Number of edges             : 90963
    Number of edges to retest   : 0
    Number of intersected edges : 7668
Split mesh in = 0.18 s


After subsetting : cells:28643  faces:90963  points:33762
Cells per refinement level:
    0	5051
    1	23592

Introducing zones for interfaces
--------------------------------

Setting cellZones according to named surfaces:
Surface : sphere
    faceZones : 1(sphere_surface)
    cellZone  : solid

Setting cellZones according to locationsInMesh:
Location : (0.005 0.005 0.005)
    cellZone : solid
Location : (0.001 0.001 0.001)
    cellZone : air

For cellZone solid found point (0.005 0.005 0.005) in global region 0 out of 1 regions.
For cellZone air found point (0.001 0.001 0.001) in global region 0 out of 1 regions.
--> FOAM Warning : 
    From void Foam::meshRefinement::findCellZoneInsideWalk(const Foam::pointField&, const Foam::labelList&, const Foam::labelList&, Foam::labelList&) const
    in file meshRefinement/meshRefinementBaffles.C at line 1788
    Cell 0 at (0.00025 0.00025 0.00025) is inside cellZone air from locationInMesh (0.001 0.001 0.001) but already marked as being in zone solid
This can happen if your surfaces are not (sufficiently) closed.
--> FOAM Warning : 
    From void Foam::meshRefinement::findCellZoneInsideWalk(const Foam::pointField&, const Foam::labelList&, const Foam::labelList&, Foam::labelList&) const
    in file meshRefinement/meshRefinementBaffles.C at line 1788
    Cell 1 at (0.00075 0.00025 0.00025) is inside cellZone air from locationInMesh (0.001 0.001 0.001) but already marked as being in zone solid
This can happen if your surfaces are not (sufficiently) closed.
--> FOAM Warning : 
    From void Foam::meshRefinement::findCellZoneInsideWalk(const Foam::pointField&, const Foam::labelList&, const Foam::labelList&, Foam::labelList&) const
    in file meshRefinement/meshRefinementBaffles.C at line 1788
    Cell 2 at (0.00125 0.00025 0.00025) is inside cellZone air from locationInMesh (0.001 0.001 0.001) but already marked as being in zone solid
This can happen if your surfaces are not (sufficiently) closed.
--> FOAM Warning : 
    From void Foam::meshRefinement::findCellZoneInsideWalk(const Foam::pointField&, const Foam::labelList&, const Foam::labelList&, Foam::labelList&) const
    in file meshRefinement/meshRefinementBaffles.C at line 1788
    Cell 3 at (0.00175 0.00025 0.00025) is inside cellZone air from locationInMesh (0.001 0.001 0.001) but already marked as being in zone solid
This can happen if your surfaces are not (sufficiently) closed.
--> FOAM Warning : 
    From void Foam::meshRefinement::findCellZoneInsideWalk(const Foam::pointField&, const Foam::labelList&, const Foam::labelList&, Foam::labelList&) const
    in file meshRefinement/meshRefinementBaffles.C at line 1788
    Cell 4 at (0.00225 0.00025 0.00025) is inside cellZone air from locationInMesh (0.001 0.001 0.001) but already marked as being in zone solid
This can happen if your surfaces are not (sufficiently) closed.
--> FOAM Warning : 
    From void Foam::meshRefinement::findCellZoneInsideWalk(const Foam::pointField&, const Foam::labelList&, const Foam::labelList&, Foam::labelList&) const
    in file meshRefinement/meshRefinementBaffles.C at line 1788
    Cell 5 at (0.00275 0.00025 0.00025) is inside cellZone air from locationInMesh (0.001 0.001 0.001) but already marked as being in zone solid
This can happen if your surfaces are not (sufficiently) closed.
--> FOAM Warning : 
    From void Foam::meshRefinement::findCellZoneInsideWalk(const Foam::pointField&, const Foam::labelList&, const Foam::labelList&, Foam::labelList&) const
    in file meshRefinement/meshRefinementBaffles.C at line 1788
    Cell 6 at (0.00325 0.00025 0.00025) is inside cellZone air from locationInMesh (0.001 0.001 0.001) but already marked as being in zone solid
This can happen if your surfaces are not (sufficiently) closed.
--> FOAM Warning : 
    From void Foam::meshRefinement::findCellZoneInsideWalk(const Foam::pointField&, const Foam::labelList&, const Foam::labelList&, Foam::labelList&) const
    in file meshRefinement/meshRefinementBaffles.C at line 1788
    Cell 7 at (0.00375 0.00025 0.00025) is inside cellZone air from locationInMesh (0.001 0.001 0.001) but already marked as being in zone solid
This can happen if your surfaces are not (sufficiently) closed.
--> FOAM Warning : 
    From void Foam::meshRefinement::findCellZoneInsideWalk(const Foam::pointField&, const Foam::labelList&, const Foam::labelList&, Foam::labelList&) const
    in file meshRefinement/meshRefinementBaffles.C at line 1788
    Cell 8 at (0.00425 0.00025 0.00025) is inside cellZone air from locationInMesh (0.001 0.001 0.001) but already marked as being in zone solid
This can happen if your surfaces are not (sufficiently) closed.
--> FOAM Warning : 
    From void Foam::meshRefinement::findCellZoneInsideWalk(const Foam::pointField&, const Foam::labelList&, const Foam::labelList&, Foam::labelList&) const
    in file meshRefinement/meshRefinementBaffles.C at line 1788
    Cell 9 at (0.00475 0.00025 0.00025) is inside cellZone air from locationInMesh (0.001 0.001 0.001) but already marked as being in zone solid
This can happen if your surfaces are not (sufficiently) closed.
Found 1 named surfaces with a provided inside point. Assigning cells inside these surfaces to the corresponding cellZone.

For cellZone solid found point (0.005 0.005 0.005) in global region 1 out of 2 regions.
--> FOAM Warning : 
    From void Foam::meshRefinement::findCellZoneInsideWalk(const Foam::pointField&, const Foam::labelList&, const Foam::labelList&, Foam::labelList&) const
    in file meshRefinement/meshRefinementBaffles.C at line 1788
    Cell 969 at (0.004625 0.004125 0.001125) is inside cellZone solid from locationInMesh (0.005 0.005 0.005) but already marked as being in zone air
This can happen if your surfaces are not (sufficiently) closed.
--> FOAM Warning : 
    From void Foam::meshRefinement::findCellZoneInsideWalk(const Foam::pointField&, const Foam::labelList&, const Foam::labelList&, Foam::labelList&) const
    in file meshRefinement/meshRefinementBaffles.C at line 1788
    Cell 970 at (0.005125 0.004125 0.001125) is inside cellZone solid from locationInMesh (0.005 0.005 0.005) but already marked as being in zone air
This can happen if your surfaces are not (sufficiently) closed.
--> FOAM Warning : 
    From void Foam::meshRefinement::findCellZoneInsideWalk(const Foam::pointField&, const Foam::labelList&, const Foam::labelList&, Foam::labelList&) const
    in file meshRefinement/meshRefinementBaffles.C at line 1788
    Cell 988 at (0.004125 0.004625 0.001125) is inside cellZone solid from locationInMesh (0.005 0.005 0.005) but already marked as being in zone air
This can happen if your surfaces are not (sufficiently) closed.
--> FOAM Warning : 
    From void Foam::meshRefinement::findCellZoneInsideWalk(const Foam::pointField&, const Foam::labelList&, const Foam::labelList&, Foam::labelList&) const
    in file meshRefinement/meshRefinementBaffles.C at line 1788
    Cell 989 at (0.004625 0.004625 0.001125) is inside cellZone solid from locationInMesh (0.005 0.005 0.005) but already marked as being in zone air
This can happen if your surfaces are not (sufficiently) closed.
--> FOAM Warning : 
    From void Foam::meshRefinement::findCellZoneInsideWalk(const Foam::pointField&, const Foam::labelList&, const Foam::labelList&, Foam::labelList&) const
    in file meshRefinement/meshRefinementBaffles.C at line 1788
    Cell 990 at (0.005125 0.004625 0.001125) is inside cellZone solid from locationInMesh (0.005 0.005 0.005) but already marked as being in zone air
This can happen if your surfaces are not (sufficiently) closed.
--> FOAM Warning : 
    From void Foam::meshRefinement::findCellZoneInsideWalk(const Foam::pointField&, const Foam::labelList&, const Foam::labelList&, Foam::labelList&) const
    in file meshRefinement/meshRefinementBaffles.C at line 1788
    Cell 991 at (0.005625 0.004625 0.001125) is inside cellZone solid from locationInMesh (0.005 0.005 0.005) but already marked as being in zone air
This can happen if your surfaces are not (sufficiently) closed.
--> FOAM Warning : 
    From void Foam::meshRefinement::findCellZoneInsideWalk(const Foam::pointField&, const Foam::labelList&, const Foam::labelList&, Foam::labelList&) const
    in file meshRefinement/meshRefinementBaffles.C at line 1788
    Cell 1008 at (0.004125 0.005125 0.001125) is inside cellZone solid from locationInMesh (0.005 0.005 0.005) but already marked as being in zone air
This can happen if your surfaces are not (sufficiently) closed.
--> FOAM Warning : 
    From void Foam::meshRefinement::findCellZoneInsideWalk(const Foam::pointField&, const Foam::labelList&, const Foam::labelList&, Foam::labelList&) const
    in file meshRefinement/meshRefinementBaffles.C at line 1788
    Cell 1009 at (0.004625 0.005125 0.001125) is inside cellZone solid from locationInMesh (0.005 0.005 0.005) but already marked as being in zone air
This can happen if your surfaces are not (sufficiently) closed.
--> FOAM Warning : 
    From void Foam::meshRefinement::findCellZoneInsideWalk(const Foam::pointField&, const Foam::labelList&, const Foam::labelList&, Foam::labelList&) const
    in file meshRefinement/meshRefinementBaffles.C at line 1788
    Cell 1010 at (0.005125 0.005125 0.001125) is inside cellZone solid from locationInMesh (0.005 0.005 0.005) but already marked as being in zone air
This can happen if your surfaces are not (sufficiently) closed.
--> FOAM Warning : 
    From void Foam::meshRefinement::findCellZoneInsideWalk(const Foam::pointField&, const Foam::labelList&, const Foam::labelList&, Foam::labelList&) const
    in file meshRefinement/meshRefinementBaffles.C at line 1788
    Cell 1011 at (0.005625 0.005125 0.001125) is inside cellZone solid from locationInMesh (0.005 0.005 0.005) but already marked as being in zone air
This can happen if your surfaces are not (sufficiently) closed.
Walking from known cellZones; crossing a faceZone face changes cellZone

Setting faceZones according to neighbouring cellZones:

CellZones:
    solid	size:10270
    air	size:18373

FaceZones:
    sphere_surface	size:4872

Edge intersection testing:
    Number of edges             : 90963
    Number of edges to retest   : 0
    Number of intersected edges : 7668

Handling cells with snap problems
---------------------------------

Introducing baffles for 7668 faces that are intersected by the surface.

Setting cellZones according to locationsInMesh:
Location : (0.005 0.005 0.005)
    cellZone : solid
Location : (0.001 0.001 0.001)
    cellZone : air

For cellZone solid found point (0.005 0.005 0.005) in global region 0 out of 1 regions.
For cellZone air found point (0.001 0.001 0.001) in global region 0 out of 1 regions.
--> FOAM Warning : 
    From void Foam::meshRefinement::findCellZoneInsideWalk(const Foam::pointField&, const Foam::labelList&, const Foam::labelList&, Foam::labelList&) const
    in file meshRefinement/meshRefinementBaffles.C at line 1788
    Cell 0 at (0.00025 0.00025 0.00025) is inside cellZone air from locationInMesh (0.001 0.001 0.001) but already marked as being in zone solid
This can happen if your surfaces are not (sufficiently) closed.
--> FOAM Warning : 
    From void Foam::meshRefinement::findCellZoneInsideWalk(const Foam::pointField&, const Foam::labelList&, const Foam::labelList&, Foam::labelList&) const
    in file meshRefinement/meshRefinementBaffles.C at line 1788
    Cell 1 at (0.00075 0.00025 0.00025) is inside cellZone air from locationInMesh (0.001 0.001 0.001) but already marked as being in zone solid
This can happen if your surfaces are not (sufficiently) closed.
--> FOAM Warning : 
    From void Foam::meshRefinement::findCellZoneInsideWalk(const Foam::pointField&, const Foam::labelList&, const Foam::labelList&, Foam::labelList&) const
    in file meshRefinement/meshRefinementBaffles.C at line 1788
    Cell 2 at (0.00125 0.00025 0.00025) is inside cellZone air from locationInMesh (0.001 0.001 0.001) but already marked as being in zone solid
This can happen if your surfaces are not (sufficiently) closed.
--> FOAM Warning : 
    From void Foam::meshRefinement::findCellZoneInsideWalk(const Foam::pointField&, const Foam::labelList&, const Foam::labelList&, Foam::labelList&) const
    in file meshRefinement/meshRefinementBaffles.C at line 1788
    Cell 3 at (0.00175 0.00025 0.00025) is inside cellZone air from locationInMesh (0.001 0.001 0.001) but already marked as being in zone solid
This can happen if your surfaces are not (sufficiently) closed.
--> FOAM Warning : 
    From void Foam::meshRefinement::findCellZoneInsideWalk(const Foam::pointField&, const Foam::labelList&, const Foam::labelList&, Foam::labelList&) const
    in file meshRefinement/meshRefinementBaffles.C at line 1788
    Cell 4 at (0.00225 0.00025 0.00025) is inside cellZone air from locationInMesh (0.001 0.001 0.001) but already marked as being in zone solid
This can happen if your surfaces are not (sufficiently) closed.
--> FOAM Warning : 
    From void Foam::meshRefinement::findCellZoneInsideWalk(const Foam::pointField&, const Foam::labelList&, const Foam::labelList&, Foam::labelList&) const
    in file meshRefinement/meshRefinementBaffles.C at line 1788
    Cell 5 at (0.00275 0.00025 0.00025) is inside cellZone air from locationInMesh (0.001 0.001 0.001) but already marked as being in zone solid
This can happen if your surfaces are not (sufficiently) closed.
--> FOAM Warning : 
    From void Foam::meshRefinement::findCellZoneInsideWalk(const Foam::pointField&, const Foam::labelList&, const Foam::labelList&, Foam::labelList&) const
    in file meshRefinement/meshRefinementBaffles.C at line 1788
    Cell 6 at (0.00325 0.00025 0.00025) is inside cellZone air from locationInMesh (0.001 0.001 0.001) but already marked as being in zone solid
This can happen if your surfaces are not (sufficiently) closed.
--> FOAM Warning : 
    From void Foam::meshRefinement::findCellZoneInsideWalk(const Foam::pointField&, const Foam::labelList&, const Foam::labelList&, Foam::labelList&) const
    in file meshRefinement/meshRefinementBaffles.C at line 1788
    Cell 7 at (0.00375 0.00025 0.00025) is inside cellZone air from locationInMesh (0.001 0.001 0.001) but already marked as being in zone solid
This can happen if your surfaces are not (sufficiently) closed.
--> FOAM Warning : 
    From void Foam::meshRefinement::findCellZoneInsideWalk(const Foam::pointField&, const Foam::labelList&, const Foam::labelList&, Foam::labelList&) const
    in file meshRefinement/meshRefinementBaffles.C at line 1788
    Cell 8 at (0.00425 0.00025 0.00025) is inside cellZone air from locationInMesh (0.001 0.001 0.001) but already marked as being in zone solid
This can happen if your surfaces are not (sufficiently) closed.
--> FOAM Warning : 
    From void Foam::meshRefinement::findCellZoneInsideWalk(const Foam::pointField&, const Foam::labelList&, const Foam::labelList&, Foam::labelList&) const
    in file meshRefinement/meshRefinementBaffles.C at line 1788
    Cell 9 at (0.00475 0.00025 0.00025) is inside cellZone air from locationInMesh (0.001 0.001 0.001) but already marked as being in zone solid
This can happen if your surfaces are not (sufficiently) closed.
Found 1 named surfaces with a provided inside point. Assigning cells inside these surfaces to the corresponding cellZone.

For cellZone solid found point (0.005 0.005 0.005) in global region 1 out of 2 regions.
--> FOAM Warning : 
    From void Foam::meshRefinement::findCellZoneInsideWalk(const Foam::pointField&, const Foam::labelList&, const Foam::labelList&, Foam::labelList&) const
    in file meshRefinement/meshRefinementBaffles.C at line 1788
    Cell 969 at (0.004625 0.004125 0.001125) is inside cellZone solid from locationInMesh (0.005 0.005 0.005) but already marked as being in zone air
This can happen if your surfaces are not (sufficiently) closed.
--> FOAM Warning : 
    From void Foam::meshRefinement::findCellZoneInsideWalk(const Foam::pointField&, const Foam::labelList&, const Foam::labelList&, Foam::labelList&) const
    in file meshRefinement/meshRefinementBaffles.C at line 1788
    Cell 970 at (0.005125 0.004125 0.001125) is inside cellZone solid from locationInMesh (0.005 0.005 0.005) but already marked as being in zone air
This can happen if your surfaces are not (sufficiently) closed.
--> FOAM Warning : 
    From void Foam::meshRefinement::findCellZoneInsideWalk(const Foam::pointField&, const Foam::labelList&, const Foam::labelList&, Foam::labelList&) const
    in file meshRefinement/meshRefinementBaffles.C at line 1788
    Cell 988 at (0.004125 0.004625 0.001125) is inside cellZone solid from locationInMesh (0.005 0.005 0.005) but already marked as being in zone air
This can happen if your surfaces are not (sufficiently) closed.
--> FOAM Warning : 
    From void Foam::meshRefinement::findCellZoneInsideWalk(const Foam::pointField&, const Foam::labelList&, const Foam::labelList&, Foam::labelList&) const
    in file meshRefinement/meshRefinementBaffles.C at line 1788
    Cell 989 at (0.004625 0.004625 0.001125) is inside cellZone solid from locationInMesh (0.005 0.005 0.005) but already marked as being in zone air
This can happen if your surfaces are not (sufficiently) closed.
--> FOAM Warning : 
    From void Foam::meshRefinement::findCellZoneInsideWalk(const Foam::pointField&, const Foam::labelList&, const Foam::labelList&, Foam::labelList&) const
    in file meshRefinement/meshRefinementBaffles.C at line 1788
    Cell 990 at (0.005125 0.004625 0.001125) is inside cellZone solid from locationInMesh (0.005 0.005 0.005) but already marked as being in zone air
This can happen if your surfaces are not (sufficiently) closed.
--> FOAM Warning : 
    From void Foam::meshRefinement::findCellZoneInsideWalk(const Foam::pointField&, const Foam::labelList&, const Foam::labelList&, Foam::labelList&) const
    in file meshRefinement/meshRefinementBaffles.C at line 1788
    Cell 991 at (0.005625 0.004625 0.001125) is inside cellZone solid from locationInMesh (0.005 0.005 0.005) but already marked as being in zone air
This can happen if your surfaces are not (sufficiently) closed.
--> FOAM Warning : 
    From void Foam::meshRefinement::findCellZoneInsideWalk(const Foam::pointField&, const Foam::labelList&, const Foam::labelList&, Foam::labelList&) const
    in file meshRefinement/meshRefinementBaffles.C at line 1788
    Cell 1008 at (0.004125 0.005125 0.001125) is inside cellZone solid from locationInMesh (0.005 0.005 0.005) but already marked as being in zone air
This can happen if your surfaces are not (sufficiently) closed.
--> FOAM Warning : 
    From void Foam::meshRefinement::findCellZoneInsideWalk(const Foam::pointField&, const Foam::labelList&, const Foam::labelList&, Foam::labelList&) const
    in file meshRefinement/meshRefinementBaffles.C at line 1788
    Cell 1009 at (0.004625 0.005125 0.001125) is inside cellZone solid from locationInMesh (0.005 0.005 0.005) but already marked as being in zone air
This can happen if your surfaces are not (sufficiently) closed.
--> FOAM Warning : 
    From void Foam::meshRefinement::findCellZoneInsideWalk(const Foam::pointField&, const Foam::labelList&, const Foam::labelList&, Foam::labelList&) const
    in file meshRefinement/meshRefinementBaffles.C at line 1788
    Cell 1010 at (0.005125 0.005125 0.001125) is inside cellZone solid from locationInMesh (0.005 0.005 0.005) but already marked as being in zone air
This can happen if your surfaces are not (sufficiently) closed.
--> FOAM Warning : 
    From void Foam::meshRefinement::findCellZoneInsideWalk(const Foam::pointField&, const Foam::labelList&, const Foam::labelList&, Foam::labelList&) const
    in file meshRefinement/meshRefinementBaffles.C at line 1788
    Cell 1011 at (0.005625 0.005125 0.001125) is inside cellZone solid from locationInMesh (0.005 0.005 0.005) but already marked as being in zone air
This can happen if your surfaces are not (sufficiently) closed.
Walking from known cellZones; crossing a faceZone face changes cellZone

Edge intersection testing:
    Number of edges             : 90963
    Number of edges to retest   : 11580
    Number of intersected edges : 7668
Created baffles in = 0.17 s


After introducing baffles : cells:28643  faces:90963  points:33762
Cells per refinement level:
    0	5051
    1	23592

Introducing baffles to block off problem cells
----------------------------------------------

markFacesOnProblemCells : marked 0 additional internal faces to be converted into baffles.
Analyzed problem cells in = 0.05 s


Introducing baffles to delete problem cells.

Created baffles in = 0 s


After introducing baffles : cells:28643  faces:90963  points:33762
Cells per refinement level:
    0	5051
    1	23592
Setting cellZones according to locationsInMesh:
Location : (0.005 0.005 0.005)
    cellZone : solid
Location : (0.001 0.001 0.001)
    cellZone : air

For cellZone solid found point (0.005 0.005 0.005) in global region 0 out of 1 regions.
For cellZone air found point (0.001 0.001 0.001) in global region 0 out of 1 regions.
--> FOAM Warning : 
    From void Foam::meshRefinement::findCellZoneInsideWalk(const Foam::pointField&, const Foam::labelList&, const Foam::labelList&, Foam::labelList&) const
    in file meshRefinement/meshRefinementBaffles.C at line 1788
    Cell 0 at (0.00025 0.00025 0.00025) is inside cellZone air from locationInMesh (0.001 0.001 0.001) but already marked as being in zone solid
This can happen if your surfaces are not (sufficiently) closed.
--> FOAM Warning : 
    From void Foam::meshRefinement::findCellZoneInsideWalk(const Foam::pointField&, const Foam::labelList&, const Foam::labelList&, Foam::labelList&) const
    in file meshRefinement/meshRefinementBaffles.C at line 1788
    Cell 1 at (0.00075 0.00025 0.00025) is inside cellZone air from locationInMesh (0.001 0.001 0.001) but already marked as being in zone solid
This can happen if your surfaces are not (sufficiently) closed.
--> FOAM Warning : 
    From void Foam::meshRefinement::findCellZoneInsideWalk(const Foam::pointField&, const Foam::labelList&, const Foam::labelList&, Foam::labelList&) const
    in file meshRefinement/meshRefinementBaffles.C at line 1788
    Cell 2 at (0.00125 0.00025 0.00025) is inside cellZone air from locationInMesh (0.001 0.001 0.001) but already marked as being in zone solid
This can happen if your surfaces are not (sufficiently) closed.
--> FOAM Warning : 
    From void Foam::meshRefinement::findCellZoneInsideWalk(const Foam::pointField&, const Foam::labelList&, const Foam::labelList&, Foam::labelList&) const
    in file meshRefinement/meshRefinementBaffles.C at line 1788
    Cell 3 at (0.00175 0.00025 0.00025) is inside cellZone air from locationInMesh (0.001 0.001 0.001) but already marked as being in zone solid
This can happen if your surfaces are not (sufficiently) closed.
--> FOAM Warning : 
    From void Foam::meshRefinement::findCellZoneInsideWalk(const Foam::pointField&, const Foam::labelList&, const Foam::labelList&, Foam::labelList&) const
    in file meshRefinement/meshRefinementBaffles.C at line 1788
    Cell 4 at (0.00225 0.00025 0.00025) is inside cellZone air from locationInMesh (0.001 0.001 0.001) but already marked as being in zone solid
This can happen if your surfaces are not (sufficiently) closed.
--> FOAM Warning : 
    From void Foam::meshRefinement::findCellZoneInsideWalk(const Foam::pointField&, const Foam::labelList&, const Foam::labelList&, Foam::labelList&) const
    in file meshRefinement/meshRefinementBaffles.C at line 1788
    Cell 5 at (0.00275 0.00025 0.00025) is inside cellZone air from locationInMesh (0.001 0.001 0.001) but already marked as being in zone solid
This can happen if your surfaces are not (sufficiently) closed.
--> FOAM Warning : 
    From void Foam::meshRefinement::findCellZoneInsideWalk(const Foam::pointField&, const Foam::labelList&, const Foam::labelList&, Foam::labelList&) const
    in file meshRefinement/meshRefinementBaffles.C at line 1788
    Cell 6 at (0.00325 0.00025 0.00025) is inside cellZone air from locationInMesh (0.001 0.001 0.001) but already marked as being in zone solid
This can happen if your surfaces are not (sufficiently) closed.
--> FOAM Warning : 
    From void Foam::meshRefinement::findCellZoneInsideWalk(const Foam::pointField&, const Foam::labelList&, const Foam::labelList&, Foam::labelList&) const
    in file meshRefinement/meshRefinementBaffles.C at line 1788
    Cell 7 at (0.00375 0.00025 0.00025) is inside cellZone air from locationInMesh (0.001 0.001 0.001) but already marked as being in zone solid
This can happen if your surfaces are not (sufficiently) closed.
--> FOAM Warning : 
    From void Foam::meshRefinement::findCellZoneInsideWalk(const Foam::pointField&, const Foam::labelList&, const Foam::labelList&, Foam::labelList&) const
    in file meshRefinement/meshRefinementBaffles.C at line 1788
    Cell 8 at (0.00425 0.00025 0.00025) is inside cellZone air from locationInMesh (0.001 0.001 0.001) but already marked as being in zone solid
This can happen if your surfaces are not (sufficiently) closed.
--> FOAM Warning : 
    From void Foam::meshRefinement::findCellZoneInsideWalk(const Foam::pointField&, const Foam::labelList&, const Foam::labelList&, Foam::labelList&) const
    in file meshRefinement/meshRefinementBaffles.C at line 1788
    Cell 9 at (0.00475 0.00025 0.00025) is inside cellZone air from locationInMesh (0.001 0.001 0.001) but already marked as being in zone solid
This can happen if your surfaces are not (sufficiently) closed.
Found 1 named surfaces with a provided inside point. Assigning cells inside these surfaces to the corresponding cellZone.

For cellZone solid found point (0.005 0.005 0.005) in global region 1 out of 2 regions.
--> FOAM Warning : 
    From void Foam::meshRefinement::findCellZoneInsideWalk(const Foam::pointField&, const Foam::labelList&, const Foam::labelList&, Foam::labelList&) const
    in file meshRefinement/meshRefinementBaffles.C at line 1788
    Cell 969 at (0.004625 0.004125 0.001125) is inside cellZone solid from locationInMesh (0.005 0.005 0.005) but already marked as being in zone air
This can happen if your surfaces are not (sufficiently) closed.
--> FOAM Warning : 
    From void Foam::meshRefinement::findCellZoneInsideWalk(const Foam::pointField&, const Foam::labelList&, const Foam::labelList&, Foam::labelList&) const
    in file meshRefinement/meshRefinementBaffles.C at line 1788
    Cell 970 at (0.005125 0.004125 0.001125) is inside cellZone solid from locationInMesh (0.005 0.005 0.005) but already marked as being in zone air
This can happen if your surfaces are not (sufficiently) closed.
--> FOAM Warning : 
    From void Foam::meshRefinement::findCellZoneInsideWalk(const Foam::pointField&, const Foam::labelList&, const Foam::labelList&, Foam::labelList&) const
    in file meshRefinement/meshRefinementBaffles.C at line 1788
    Cell 988 at (0.004125 0.004625 0.001125) is inside cellZone solid from locationInMesh (0.005 0.005 0.005) but already marked as being in zone air
This can happen if your surfaces are not (sufficiently) closed.
--> FOAM Warning : 
    From void Foam::meshRefinement::findCellZoneInsideWalk(const Foam::pointField&, const Foam::labelList&, const Foam::labelList&, Foam::labelList&) const
    in file meshRefinement/meshRefinementBaffles.C at line 1788
    Cell 989 at (0.004625 0.004625 0.001125) is inside cellZone solid from locationInMesh (0.005 0.005 0.005) but already marked as being in zone air
This can happen if your surfaces are not (sufficiently) closed.
--> FOAM Warning : 
    From void Foam::meshRefinement::findCellZoneInsideWalk(const Foam::pointField&, const Foam::labelList&, const Foam::labelList&, Foam::labelList&) const
    in file meshRefinement/meshRefinementBaffles.C at line 1788
    Cell 990 at (0.005125 0.004625 0.001125) is inside cellZone solid from locationInMesh (0.005 0.005 0.005) but already marked as being in zone air
This can happen if your surfaces are not (sufficiently) closed.
--> FOAM Warning : 
    From void Foam::meshRefinement::findCellZoneInsideWalk(const Foam::pointField&, const Foam::labelList&, const Foam::labelList&, Foam::labelList&) const
    in file meshRefinement/meshRefinementBaffles.C at line 1788
    Cell 991 at (0.005625 0.004625 0.001125) is inside cellZone solid from locationInMesh (0.005 0.005 0.005) but already marked as being in zone air
This can happen if your surfaces are not (sufficiently) closed.
--> FOAM Warning : 
    From void Foam::meshRefinement::findCellZoneInsideWalk(const Foam::pointField&, const Foam::labelList&, const Foam::labelList&, Foam::labelList&) const
    in file meshRefinement/meshRefinementBaffles.C at line 1788
    Cell 1008 at (0.004125 0.005125 0.001125) is inside cellZone solid from locationInMesh (0.005 0.005 0.005) but already marked as being in zone air
This can happen if your surfaces are not (sufficiently) closed.
--> FOAM Warning : 
    From void Foam::meshRefinement::findCellZoneInsideWalk(const Foam::pointField&, const Foam::labelList&, const Foam::labelList&, Foam::labelList&) const
    in file meshRefinement/meshRefinementBaffles.C at line 1788
    Cell 1009 at (0.004625 0.005125 0.001125) is inside cellZone solid from locationInMesh (0.005 0.005 0.005) but already marked as being in zone air
This can happen if your surfaces are not (sufficiently) closed.
--> FOAM Warning : 
    From void Foam::meshRefinement::findCellZoneInsideWalk(const Foam::pointField&, const Foam::labelList&, const Foam::labelList&, Foam::labelList&) const
    in file meshRefinement/meshRefinementBaffles.C at line 1788
    Cell 1010 at (0.005125 0.005125 0.001125) is inside cellZone solid from locationInMesh (0.005 0.005 0.005) but already marked as being in zone air
This can happen if your surfaces are not (sufficiently) closed.
--> FOAM Warning : 
    From void Foam::meshRefinement::findCellZoneInsideWalk(const Foam::pointField&, const Foam::labelList&, const Foam::labelList&, Foam::labelList&) const
    in file meshRefinement/meshRefinementBaffles.C at line 1788
    Cell 1011 at (0.005625 0.005125 0.001125) is inside cellZone solid from locationInMesh (0.005 0.005 0.005) but already marked as being in zone air
This can happen if your surfaces are not (sufficiently) closed.
Walking from known cellZones; crossing a faceZone face changes cellZone

Edge intersection testing:
    Number of edges             : 90963
    Number of edges to retest   : 11580
    Number of intersected edges : 7668

Remove unreachable sections of mesh
-----------------------------------

Split mesh in = 0.11 s


After subsetting : cells:28643  faces:90963  points:33762
Cells per refinement level:
    0	5051
    1	23592

Merge free-standing baffles
---------------------------

freeStandingBaffles : detected 0 free-standing baffles out of 0

Detected free-standing baffles : 0
Merged free-standing baffles in = 0.02 s


dupNonManifoldPoints : Found : 0 non-manifold points (out of 33762)
Detected unsplittable baffles : 0

Merge refined boundary faces
----------------------------

Merging 0 sets of faces.

No faces merged ...

Merging all points on surface that
- are used by only two boundary faces and
- make an angle with a cosine of more than 0.707107.

No straight edges simplified and no points removed ...
Refined mesh : cells:28643  faces:90963  points:33762
Cells per refinement level:
    0	5051
    1	23592
Writing mesh to time constant
Wrote mesh in = 0.01 s.
Mesh refined in = 1.53 s.

Morphing phase
--------------

Converting zoned faces into baffles ...

FaceZone                      FaceType  nBaffles  
--------                      --------  --------  
sphere_surface                internal  4872      

Edge intersection testing:
    Number of edges             : 95835
    Number of edges to retest   : 25836
    Number of intersected edges : 12540
Created 4872 baffles in = 0.11 s


Duplicating 0 points on faceZones of type boundary
Snapping to features in 10 iterations ...
Constructing mesh displacer ...
Using mesh parameters 
{
    maxNonOrtho     65;
    maxBoundarySkewness 20;
    maxInternalSkewness 4;
    maxConcave      80;
    minVol          1e-13;
    minTetQuality   1e-15;
    minArea         -1;
    minTwist        0.02;
    minDeterminant  0.001;
    minFaceWeight   0.05;
    minVolRatio     0.01;
    minTriangleTwist -1;
    nSmoothScale    4;
    errorReduction  0.75;
    relaxed
    {
        maxNonOrtho     75;
    }
}


Checking initial mesh ...
Checking faces in error :
    non-orthogonality > 65  degrees                        : 0
    faces with face pyramid volume < 1e-13                 : 0
    faces with face-decomposition tet quality < 1e-15      : 0
    faces with concavity > 80  degrees                     : 0
    faces with skewness > 4   (internal) or 20  (boundary) : 0
    faces with interpolation weights (0..1)  < 0.05        : 0
    faces with volume ratio of neighbour cells < 0.01      : 0
    faces with face twist < 0.02                           : 0
    faces on cells with determinant < 0.001                : 0
Detected 0 illegal faces (concave, zero area or negative cell pyramid volume)
Checked initial mesh in = 0.11 s


Smoothing patch points ...
Smoothing iteration 0
Found 0 non-manifold point(s).

Scaling iteration 0
Moving mesh using displacement scaling : min:1 max:1
Checking faces in error :
    non-orthogonality > 65  degrees                        : 0
    faces with face pyramid volume < 1e-13                 : 0
    faces with face-decomposition tet quality < 1e-15      : 0
    faces with concavity > 80  degrees                     : 0
    faces with skewness > 4   (internal) or 20  (boundary) : 0
    faces with interpolation weights (0..1)  < 0.05        : 0
    faces with volume ratio of neighbour cells < 0.01      : 0
    faces with face twist < 0.02                           : 0
    faces on cells with determinant < 0.001                : 0
Successfully moved mesh

Smoothing iteration 1
Found 0 non-manifold point(s).

Scaling iteration 0
Moving mesh using displacement scaling : min:1 max:1
Checking faces in error :
    non-orthogonality > 65  degrees                        : 0
    faces with face pyramid volume < 1e-13                 : 0
    faces with face-decomposition tet quality < 1e-15      : 0
    faces with concavity > 80  degrees                     : 0
    faces with skewness > 4   (internal) or 20  (boundary) : 0
    faces with interpolation weights (0..1)  < 0.05        : 0
    faces with volume ratio of neighbour cells < 0.01      : 0
    faces with face twist < 0.02                           : 0
    faces on cells with determinant < 0.001                : 0
Successfully moved mesh

Smoothing iteration 2
Found 0 non-manifold point(s).

Scaling iteration 0
Moving mesh using displacement scaling : min:1 max:1
Checking faces in error :
    non-orthogonality > 65  degrees                        : 0
    faces with face pyramid volume < 1e-13                 : 0
    faces with face-decomposition tet quality < 1e-15      : 0
    faces with concavity > 80  degrees                     : 0
    faces with skewness > 4   (internal) or 20  (boundary) : 0
    faces with interpolation weights (0..1)  < 0.05        : 0
    faces with volume ratio of neighbour cells < 0.01      : 0
    faces with face twist < 0.02                           : 0
    faces on cells with determinant < 0.001                : 0
Successfully moved mesh

Patch points smoothed in = 0.37 s



Morph iteration 0
-----------------
Calculating patchDisplacement as distance to nearest surface point ...
    non-zone points : attract to nearest of all non-zone surfaces
    zone points     : attract to zone surface only

Wanted displacement : average:4.96452e-05 min:0 max:0.000301325
Calculated surface displacement in = 0.01 s


Detecting near surfaces ...
Overriding nearest with intersection of close gaps at 0 out of 7738 points.
Overriding displacement on features :
   implicit features    : true
   explicit features    : false
   multi-patch features : false

Attraction:
    linear   : max:(-0.000301325 5.42101e-20 5.96311e-19) avg:(1.38273e-06 1.28322e-06 1.18371e-06)
    feature  : max:(-0.000301325 -0.000301325 -0.000301325) avg:(1.83414e-08 1.89221e-08 1.96903e-08)
Feature analysis : total master points :7738 of which attracted to :
    feature point   : 8
    feature edge    : 228
    nearest surface : 7502
    rest            : 0

--> FOAM Warning : Displacement (1.60299e-07 -3.82654e-08 9.0364e-07) at mesh point 1059 coord (0.00456929 0.00407394 0.00107394) points through the surrounding patch faces
Smoothing displacement ...
Iteration 0
Iteration 10
Iteration 20
Iteration 30
Iteration 40
Iteration 50
Iteration 60
Iteration 70
Iteration 80
Iteration 90
Displacement smoothed in = 0.14 s


Moving mesh ...

Iteration 0
Moving mesh using displacement scaling : min:1 max:1
Checking faces in error :
    non-orthogonality > 65  degrees                        : 0
    faces with face pyramid volume < 1e-13                 : 0
    faces with face-decomposition tet quality < 1e-15      : 0
    faces with concavity > 80  degrees                     : 0
    faces with skewness > 4   (internal) or 20  (boundary) : 0
    faces with interpolation weights (0..1)  < 0.05        : 0
    faces with volume ratio of neighbour cells < 0.01      : 0
    faces with face twist < 0.02                           : 0
    faces on cells with determinant < 0.001                : 0
Successfully moved mesh
Moved mesh in = 0.11 s



Morph iteration 1
-----------------
Calculating patchDisplacement as distance to nearest surface point ...
    non-zone points : attract to nearest of all non-zone surfaces
    zone points     : attract to zone surface only

Wanted displacement : average:4.62671e-05 min:6.56495e-07 max:0.000271193
Calculated surface displacement in = 0 s


Detecting near surfaces ...
Overriding nearest with intersection of close gaps at 0 out of 7738 points.
Overriding displacement on features :
   implicit features    : true
   explicit features    : false
   multi-patch features : false

Attraction:
    linear   : max:(-0.000271193 -5.42101e-20 8.13152e-19) avg:(1.10607e-06 1.02401e-06 9.42671e-07)
    feature  : max:(-0.000271193 -0.000298312 -0.000298312) avg:(-2.46499e-07 -2.27187e-07 -2.10443e-07)
Feature analysis : total master points :7738 of which attracted to :
    feature point   : 8
    feature edge    : 228
    nearest surface : 7502
    rest            : 0

--> FOAM Warning : Displacement (-8.09372e-07 9.94733e-07 2.33418e-06) at mesh point 1059 coord (0.00456946 0.00407391 0.00107484) points through the surrounding patch faces
Smoothing displacement ...
Iteration 0
Iteration 10
Iteration 20
Iteration 30
Iteration 40
Iteration 50
Iteration 60
Iteration 70
Iteration 80
Iteration 90
Displacement smoothed in = 0.14 s


Moving mesh ...

Iteration 0
Moving mesh using displacement scaling : min:1 max:1
Checking faces in error :
    non-orthogonality > 65  degrees                        : 0
    faces with face pyramid volume < 1e-13                 : 0
    faces with face-decomposition tet quality < 1e-15      : 0
    faces with concavity > 80  degrees                     : 0
    faces with skewness > 4   (internal) or 20  (boundary) : 0
    faces with interpolation weights (0..1)  < 0.05        : 0
    faces with volume ratio of neighbour cells < 0.01      : 0
    faces with face twist < 0.02                           : 0
    faces on cells with determinant < 0.001                : 0
Successfully moved mesh
Moved mesh in = 0.11 s



Morph iteration 2
-----------------
Calculating patchDisplacement as distance to nearest surface point ...
    non-zone points : attract to nearest of all non-zone surfaces
    zone points     : attract to zone surface only

Wanted displacement : average:3.99375e-05 min:5.3207e-07 max:0.000216954
Calculated surface displacement in = 0 s


Detecting near surfaces ...
Overriding nearest with intersection of close gaps at 0 out of 7738 points.
Overriding displacement on features :
   implicit features    : true
   explicit features    : false
   multi-patch features : false

Attraction:
    linear   : max:(-0.000216954 0 2.1684e-19) avg:(6.58577e-07 6.03899e-07 5.5319e-07)
    feature  : max:(-0.000216954 -0.000286379 -0.000286379) avg:(-6.39322e-07 -6.00218e-07 -5.57461e-07)
Feature analysis : total master points :7738 of which attracted to :
    feature point   : 8
    feature edge    : 228
    nearest surface : 7502
    rest            : 0

--> FOAM Warning : Displacement (-2.16093e-06 1.20871e-06 3.62797e-06) at mesh point 1059 coord (0.00456865 0.0040749 0.00107718) points through the surrounding patch faces
Smoothing displacement ...
Iteration 0
Iteration 10
Iteration 20
Iteration 30
Iteration 40
Iteration 50
Iteration 60
Iteration 70
Iteration 80
Iteration 90
Displacement smoothed in = 0.14 s


Moving mesh ...

Iteration 0
Moving mesh using displacement scaling : min:1 max:1
Checking faces in error :
    non-orthogonality > 65  degrees                        : 0
    faces with face pyramid volume < 1e-13                 : 0
    faces with face-decomposition tet quality < 1e-15      : 0
    faces with concavity > 80  degrees                     : 0
    faces with skewness > 4   (internal) or 20  (boundary) : 0
    faces with interpolation weights (0..1)  < 0.05        : 0
[...]
    faces with face-decomposition tet quality < 1e-15      : 0
    faces with concavity > 80  degrees                     : 0
    faces with skewness > 4   (internal) or 20  (boundary) : 0
    faces with interpolation weights (0..1)  < 0.05        : 0
    faces with volume ratio of neighbour cells < 0.01      : 0
    faces with face twist < 0.02                           : 0
    faces on cells with determinant < 0.001                : 0
Successfully moved mesh
Moved mesh in = 0.12 s



Morph iteration 7
-----------------
Calculating patchDisplacement as distance to nearest surface point ...
    non-zone points : attract to nearest of all non-zone surfaces
    zone points     : attract to zone surface only

Wanted displacement : average:1.13375e-05 min:5.38915e-11 max:7.22475e-05
Calculated surface displacement in = 0.01 s


Detecting near surfaces ...
Overriding nearest with intersection of close gaps at 0 out of 7738 points.
Overriding displacement on features :
   implicit features    : true
   explicit features    : false
   multi-patch features : false

Attraction:
    linear   : max:(-3.35142e-05 4.29423e-05 4.74601e-05) avg:(2.60484e-07 2.28785e-07 2.21419e-07)
    feature  : max:(-5.46724e-06 -5.35888e-05 -5.35888e-05) avg:(-2.94638e-09 -1.76989e-08 -6.73786e-09)
Feature analysis : total master points :7738 of which attracted to :
    feature point   : 8
    feature edge    : 228
    nearest surface : 7502
    rest            : 0

--> FOAM Warning : Displacement (-1.09184e-06 1.87437e-06 1.56812e-07) at mesh point 1059 coord (0.00458122 0.0040833 0.00110877) points through the surrounding patch faces
Smoothing displacement ...
Iteration 0
Iteration 10
Iteration 20
Iteration 30
Iteration 40
Iteration 50
Iteration 60
Iteration 70
Iteration 80
Iteration 90
Displacement smoothed in = 0.17 s


Moving mesh ...

Iteration 0
Moving mesh using displacement scaling : min:1 max:1
Checking faces in error :
    non-orthogonality > 65  degrees                        : 17
    faces with face pyramid volume < 1e-13                 : 0
    faces with face-decomposition tet quality < 1e-15      : 0
    faces with concavity > 80  degrees                     : 0
    faces with skewness > 4   (internal) or 20  (boundary) : 0
    faces with interpolation weights (0..1)  < 0.05        : 0
    faces with volume ratio of neighbour cells < 0.01      : 0
    faces with face twist < 0.02                           : 0
    faces on cells with determinant < 0.001                : 0

Iteration 1
Moving mesh using displacement scaling : min:0.75 max:1
Checking faces in error :
    non-orthogonality > 65  degrees                        : 2
    faces with face pyramid volume < 1e-13                 : 0
    faces with face-decomposition tet quality < 1e-15      : 0
    faces with concavity > 80  degrees                     : 0
    faces with skewness > 4   (internal) or 20  (boundary) : 0
    faces with interpolation weights (0..1)  < 0.05        : 0
    faces with volume ratio of neighbour cells < 0.01      : 0
    faces with face twist < 0.02                           : 0
    faces on cells with determinant < 0.001                : 0

Iteration 2
Moving mesh using displacement scaling : min:0.5625 max:1
Checking faces in error :
    non-orthogonality > 65  degrees                        : 0
    faces with face pyramid volume < 1e-13                 : 0
    faces with face-decomposition tet quality < 1e-15      : 0
    faces with concavity > 80  degrees                     : 0
    faces with skewness > 4   (internal) or 20  (boundary) : 0
    faces with interpolation weights (0..1)  < 0.05        : 0
    faces with volume ratio of neighbour cells < 0.01      : 0
    faces with face twist < 0.02                           : 0
    faces on cells with determinant < 0.001                : 0
Successfully moved mesh
Moved mesh in = 0.25 s



Morph iteration 8
-----------------
Calculating patchDisplacement as distance to nearest surface point ...
    non-zone points : attract to nearest of all non-zone surfaces
    zone points     : attract to zone surface only

Wanted displacement : average:8.23483e-06 min:1.65751e-09 max:6.57367e-05
Calculated surface displacement in = 0.01 s


Detecting near surfaces ...
Overriding nearest with intersection of close gaps at 0 out of 7738 points.
Overriding displacement on features :
   implicit features    : true
   explicit features    : false
   multi-patch features : false

Attraction:
    linear   : max:(-3.03419e-05 3.92457e-05 4.31331e-05) avg:(2.42346e-07 2.11372e-07 2.07799e-07)
    feature  : max:(-3.20936e-05 4.07228e-05 4.2742e-05) avg:(1.31966e-07 1.07059e-07 1.10649e-07)
Feature analysis : total master points :7738 of which attracted to :
    feature point   : 8
    feature edge    : 228
    nearest surface : 7502
    rest            : 0

--> FOAM Warning : Displacement (2.59079e-06 2.32938e-06 6.04899e-07) at mesh point 1059 coord (0.0045802 0.00408506 0.00110892) points through the surrounding patch faces
Smoothing displacement ...
Iteration 0
Iteration 10
Iteration 20
Iteration 30
Iteration 40
Iteration 50
Iteration 60
Iteration 70
Iteration 80
Iteration 90
Displacement smoothed in = 0.14 s


Moving mesh ...

Iteration 0
Moving mesh using displacement scaling : min:1 max:1
Checking faces in error :
    non-orthogonality > 65  degrees                        : 197
    faces with face pyramid volume < 1e-13                 : 0
    faces with face-decomposition tet quality < 1e-15      : 0
    faces with concavity > 80  degrees                     : 0
    faces with skewness > 4   (internal) or 20  (boundary) : 0
    faces with interpolation weights (0..1)  < 0.05        : 0
    faces with volume ratio of neighbour cells < 0.01      : 0
    faces with face twist < 0.02                           : 0
    faces on cells with determinant < 0.001                : 0

Iteration 1
Moving mesh using displacement scaling : min:0.75 max:1
Checking faces in error :
    non-orthogonality > 65  degrees                        : 109
    faces with face pyramid volume < 1e-13                 : 0
    faces with face-decomposition tet quality < 1e-15      : 0
    faces with concavity > 80  degrees                     : 0
    faces with skewness > 4   (internal) or 20  (boundary) : 0
    faces with interpolation weights (0..1)  < 0.05        : 0
    faces with volume ratio of neighbour cells < 0.01      : 0
    faces with face twist < 0.02                           : 0
    faces on cells with determinant < 0.001                : 0

Iteration 2
Moving mesh using displacement scaling : min:0.5625 max:1
Checking faces in error :
    non-orthogonality > 65  degrees                        : 72
    faces with face pyramid volume < 1e-13                 : 0
    faces with face-decomposition tet quality < 1e-15      : 0
    faces with concavity > 80  degrees                     : 0
    faces with skewness > 4   (internal) or 20  (boundary) : 0
    faces with interpolation weights (0..1)  < 0.05        : 0
    faces with volume ratio of neighbour cells < 0.01      : 0
    faces with face twist < 0.02                           : 0
    faces on cells with determinant < 0.001                : 0

Iteration 3
Moving mesh using displacement scaling : min:0.421875 max:1
Checking faces in error :
    non-orthogonality > 65  degrees                        : 39
    faces with face pyramid volume < 1e-13                 : 0
    faces with face-decomposition tet quality < 1e-15      : 0
    faces with concavity > 80  degrees                     : 0
    faces with skewness > 4   (internal) or 20  (boundary) : 0
    faces with interpolation weights (0..1)  < 0.05        : 0
    faces with volume ratio of neighbour cells < 0.01      : 0
    faces with face twist < 0.02                           : 0
    faces on cells with determinant < 0.001                : 0

Iteration 4
Moving mesh using displacement scaling : min:0.316406 max:1
Checking faces in error :
    non-orthogonality > 65  degrees                        : 27
    faces with face pyramid volume < 1e-13                 : 0
    faces with face-decomposition tet quality < 1e-15      : 0
    faces with concavity > 80  degrees                     : 0
    faces with skewness > 4   (internal) or 20  (boundary) : 0
    faces with interpolation weights (0..1)  < 0.05        : 0
    faces with volume ratio of neighbour cells < 0.01      : 0
    faces with face twist < 0.02                           : 0
    faces on cells with determinant < 0.001                : 0

Iteration 5
Displacement scaling for error reduction set to 0.
Moving mesh using displacement scaling : min:0.237305 max:1
Checking faces in error :
    non-orthogonality > 65  degrees                        : 14
    faces with face pyramid volume < 1e-13                 : 0
    faces with face-decomposition tet quality < 1e-15      : 0
    faces with concavity > 80  degrees                     : 0
    faces with skewness > 4   (internal) or 20  (boundary) : 0
    faces with interpolation weights (0..1)  < 0.05        : 0
    faces with volume ratio of neighbour cells < 0.01      : 0
    faces with face twist < 0.02                           : 0
    faces on cells with determinant < 0.001                : 0

Iteration 6
Moving mesh using displacement scaling : min:0 max:1
Checking faces in error :
    non-orthogonality > 65  degrees                        : 0
    faces with face pyramid volume < 1e-13                 : 0
    faces with face-decomposition tet quality < 1e-15      : 0
    faces with concavity > 80  degrees                     : 0
    faces with skewness > 4   (internal) or 20  (boundary) : 0
    faces with interpolation weights (0..1)  < 0.05        : 0
    faces with volume ratio of neighbour cells < 0.01      : 0
    faces with face twist < 0.02                           : 0
    faces on cells with determinant < 0.001                : 0
Successfully moved mesh
Moved mesh in = 0.79 s



Morph iteration 9
-----------------
Calculating patchDisplacement as distance to nearest surface point ...
    non-zone points : attract to nearest of all non-zone surfaces
    zone points     : attract to zone surface only

Wanted displacement : average:5.41784e-06 min:1.30738e-11 max:5.8933e-05
Calculated surface displacement in = 0 s


Detecting near surfaces ...
Overriding nearest with intersection of close gaps at 0 out of 7738 points.
Overriding displacement on features :
   implicit features    : true
   explicit features    : false
   multi-patch features : false

Attraction:
    linear   : max:(-2.70426e-05 3.5368e-05 3.86122e-05) avg:(1.20294e-07 1.05893e-07 9.78029e-08)
    feature  : max:(-2.88285e-05 3.66312e-05 3.84159e-05) avg:(7.92294e-08 6.55329e-08 6.03819e-08)
Feature analysis : total master points :7738 of which attracted to :
    feature point   : 8
    feature edge    : 228
    nearest surface : 7502
    rest            : 0

--> FOAM Warning : Displacement (1.8904e-06 4.13102e-06 1.75992e-05) at mesh point 1059 coord (0.00458209 0.00408676 0.00110936) points through the surrounding patch faces
Smoothing displacement ...
Iteration 0
Iteration 10
Iteration 20
Iteration 30
Iteration 40
Iteration 50
Iteration 60
Iteration 70
Iteration 80
Iteration 90
Displacement smoothed in = 0.13 s


Moving mesh ...

Iteration 0
Moving mesh using displacement scaling : min:1 max:1
Checking faces in error :
    non-orthogonality > 65  degrees                        : 1012
    faces with face pyramid volume < 1e-13                 : 0
    faces with face-decomposition tet quality < 1e-15      : 0
    faces with concavity > 80  degrees                     : 0
    faces with skewness > 4   (internal) or 20  (boundary) : 0
    faces with interpolation weights (0..1)  < 0.05        : 0
    faces with volume ratio of neighbour cells < 0.01      : 0
    faces with face twist < 0.02                           : 0
    faces on cells with determinant < 0.001                : 0

Iteration 1
Moving mesh using displacement scaling : min:0.75 max:1
Checking faces in error :
    non-orthogonality > 65  degrees                        : 791
    faces with face pyramid volume < 1e-13                 : 0
    faces with face-decomposition tet quality < 1e-15      : 0
    faces with concavity > 80  degrees                     : 0
    faces with skewness > 4   (internal) or 20  (boundary) : 0
    faces with interpolation weights (0..1)  < 0.05        : 0
    faces with volume ratio of neighbour cells < 0.01      : 0
    faces with face twist < 0.02                           : 0
    faces on cells with determinant < 0.001                : 0

Iteration 2
Moving mesh using displacement scaling : min:0.5625 max:1
Checking faces in error :
    non-orthogonality > 65  degrees                        : 590
    faces with face pyramid volume < 1e-13                 : 0
    faces with face-decomposition tet quality < 1e-15      : 0
    faces with concavity > 80  degrees                     : 0
    faces with skewness > 4   (internal) or 20  (boundary) : 0
    faces with interpolation weights (0..1)  < 0.05        : 0
    faces with volume ratio of neighbour cells < 0.01      : 0
    faces with face twist < 0.02                           : 0
    faces on cells with determinant < 0.001                : 0

Iteration 3
Moving mesh using displacement scaling : min:0.421875 max:1
Checking faces in error :
    non-orthogonality > 65  degrees                        : 444
    faces with face pyramid volume < 1e-13                 : 0
    faces with face-decomposition tet quality < 1e-15      : 0
    faces with concavity > 80  degrees                     : 0
    faces with skewness > 4   (internal) or 20  (boundary) : 0
    faces with interpolation weights (0..1)  < 0.05        : 0
    faces with volume ratio of neighbour cells < 0.01      : 0
    faces with face twist < 0.02                           : 0
    faces on cells with determinant < 0.001                : 0

Iteration 4
Moving mesh using displacement scaling : min:0.316406 max:1
Checking faces in error :
    non-orthogonality > 65  degrees                        : 349
    faces with face pyramid volume < 1e-13                 : 0
    faces with face-decomposition tet quality < 1e-15      : 0
    faces with concavity > 80  degrees                     : 0
    faces with skewness > 4   (internal) or 20  (boundary) : 0
    faces with interpolation weights (0..1)  < 0.05        : 0
    faces with volume ratio of neighbour cells < 0.01      : 0
    faces with face twist < 0.02                           : 0
    faces on cells with determinant < 0.001                : 0

Iteration 5
Displacement scaling for error reduction set to 0.
Moving mesh using displacement scaling : min:0.237305 max:1
Checking faces in error :
    non-orthogonality > 65  degrees                        : 276
    faces with face pyramid volume < 1e-13                 : 0
    faces with face-decomposition tet quality < 1e-15      : 0
    faces with concavity > 80  degrees                     : 0
    faces with skewness > 4   (internal) or 20  (boundary) : 0
    faces with interpolation weights (0..1)  < 0.05        : 0
    faces with volume ratio of neighbour cells < 0.01      : 0
    faces with face twist < 0.02                           : 0
    faces on cells with determinant < 0.001                : 0

Iteration 6
Moving mesh using displacement scaling : min:0 max:1
Checking faces in error :
    non-orthogonality > 65  degrees                        : 18
    faces with face pyramid volume < 1e-13                 : 0
    faces with face-decomposition tet quality < 1e-15      : 0
    faces with concavity > 80  degrees                     : 0
    faces with skewness > 4   (internal) or 20  (boundary) : 0
    faces with interpolation weights (0..1)  < 0.05        : 0
    faces with volume ratio of neighbour cells < 0.01      : 0
    faces with face twist < 0.02                           : 0
    faces on cells with determinant < 0.001                : 0

Iteration 7
Moving mesh using displacement scaling : min:0 max:1
Checking faces in error :
    non-orthogonality > 65  degrees                        : 14
    faces with face pyramid volume < 1e-13                 : 0
    faces with face-decomposition tet quality < 1e-15      : 0
    faces with concavity > 80  degrees                     : 0
    faces with skewness > 4   (internal) or 20  (boundary) : 0
    faces with interpolation weights (0..1)  < 0.05        : 0
    faces with volume ratio of neighbour cells < 0.01      : 0
    faces with face twist < 0.02                           : 0
    faces on cells with determinant < 0.001                : 0

Iteration 8
Moving mesh using displacement scaling : min:0 max:1
Checking faces in error :
    non-orthogonality > 65  degrees                        : 11
    faces with face pyramid volume < 1e-13                 : 0
    faces with face-decomposition tet quality < 1e-15      : 0
    faces with concavity > 80  degrees                     : 0
    faces with skewness > 4   (internal) or 20  (boundary) : 0
    faces with interpolation weights (0..1)  < 0.05        : 0
    faces with volume ratio of neighbour cells < 0.01      : 0
    faces with face twist < 0.02                           : 0
    faces on cells with determinant < 0.001                : 0

Iteration 9
Moving mesh using displacement scaling : min:0 max:1
Checking faces in error :
    non-orthogonality > 65  degrees                        : 11
    faces with face pyramid volume < 1e-13                 : 0
    faces with face-decomposition tet quality < 1e-15      : 0
    faces with concavity > 80  degrees                     : 0
    faces with skewness > 4   (internal) or 20  (boundary) : 0
    faces with interpolation weights (0..1)  < 0.05        : 0
    faces with volume ratio of neighbour cells < 0.01      : 0
    faces with face twist < 0.02                           : 0
    faces on cells with determinant < 0.001                : 0
Moved mesh in = 1.39 s


--> FOAM Warning : 
    From void Foam::snappySnapDriver::doSnap(const Foam::dictionary&, const Foam::dictionary&, Foam::meshRefinement::FaceMergeType, Foam::scalar, Foam::scalar, const Foam::snapParameters&)
    in file snappyHexMeshDriver/snappySnapDriver.C at line 3448
    Did not successfully snap mesh. Continuing to snap to resolve easy
    surfaces but the resulting mesh will not satisfy your quality constraints

Edge intersection testing:
    Number of edges             : 90963
    Number of edges to retest   : 4872
    Number of intersected edges : 7668
Repatching faces according to nearest surface ...
Repatched 0 faces in = 0.07 s


Edge intersection testing:
    Number of edges             : 90963
    Number of edges to retest   : 11580
    Number of intersected edges : 7668
Merging 0 sets of faces.

No faces merged ...

Merging all points on surface that
- are used by only two boundary faces and
- make an angle with a cosine of more than 0.965926.

No straight edges simplified and no points removed ...
Snapped mesh : cells:28643  faces:90963  points:33762
Cells per refinement level:
    0	5051
    1	23592
Writing mesh to time constant
Wrote mesh in = 0.01 s.
Mesh snapped in = 5.42 s.
Checking final mesh ...
Checking faces in error :
    non-orthogonality > 65  degrees                        : 11
    faces with face pyramid volume < 1e-13                 : 0
    faces with face-decomposition tet quality < 1e-15      : 0
    faces with concavity > 80  degrees                     : 0
    faces with skewness > 4   (internal) or 20  (boundary) : 0
    faces with interpolation weights (0..1)  < 0.05        : 0
    faces with volume ratio of neighbour cells < 0.01      : 0
    faces with face twist < 0.02                           : 0
    faces on cells with determinant < 0.001                : 0
Finished meshing with 11 illegal faces (concave, zero area or negative cell pyramid volume)
Finished meshing in = 7.12 s.
End

